


                                __________________________________________
                               |                                          |
                               | NUMERICAL ELECTROMAGNETICS CODE (nec2++) |
                               | Translated to 'C++' in Double Precision  |
                               |              Version 1.0.4 [2004-11-23]              |
                               |__________________________________________|



                               ---------------- COMMENTS ----------------
                                 12 ELEMENT LOG PERIODIC ANTENNA IN FREE SPACE.
                                   78 SEGMENTS.     SIGMA=D/L       RECEIVING AND TRANS. PATTERNS.
                                End Comments



                                -------- STRUCTURE SPECIFICATION --------
                                COORDINATES MUST BE INPUT IN
                                METERS OR BE SCALED TO METERS
                                BEFORE STRUCTURE INPUT IS ENDED
  WIRE                                                                                 SEG FIRST  LAST  TAG
   No:        X1         Y1         Z1         X2         Y2         Z2       RADIUS   No:   SEG   SEG  No:

     1      0.0000    -0.1675     0.0000     0.0000     0.1675     0.0000     0.0070     5     1     5    1
     2     -0.1005    -0.2010     0.0000    -0.1005     0.2010     0.0000     0.0070     5     6    10    2
     3     -0.2211    -0.2410     0.0000    -0.2211     0.2410     0.0000     0.0080     5    11    15    3
     4     -0.3658    -0.2895     0.0000    -0.3658     0.2895     0.0000     0.0080     5    16    20    4
     5     -0.5394    -0.3470     0.0000    -0.5394     0.3470     0.0000     0.0090     5    21    25    5
     6     -0.7474    -0.4165     0.0000    -0.7474     0.4165     0.0000     0.0100     7    26    32    6
     7     -0.9974    -0.5000     0.0000    -0.9974     0.5000     0.0000     0.0100     7    33    39    7
     8     -1.2974    -0.6000     0.0000    -1.2974     0.6000     0.0000     0.0110     7    40    46    8
     9     -1.6574    -0.7200     0.0000    -1.6574     0.7200     0.0000     0.0120     7    47    53    9
    10     -2.0894    -0.8640     0.0000    -2.0894     0.8640     0.0000     0.0130     7    54    60   10
    11     -2.6074    -1.0350     0.0000    -2.6074     1.0350     0.0000     0.0140     9    61    69   11
    12     -3.2294    -1.2450     0.0000    -3.2294     1.2450     0.0000     0.0150     9    70    78   12
     THE STRUCTURE HAS BEEN MOVED, MOVE DATA CARD IS:
    12     1    0.00000   30.00000    0.00000    0.00000    0.00000    0.00000    0.00000

     TOTAL SEGMENTS USED: 156   SEGMENTS IN A SYMMETRIC CELL: 156   SYMMETRY FLAG: 0

    ---------- MULTIPLE WIRE JUNCTIONS ----------
    JUNCTION  SEGMENTS (- FOR END 1, + FOR END 2)
       1          1   -2   79  -80
       2          2   -3   80  -81
       3          3   -4   81  -82
       4          4   -5   82  -83


                               ---------- SEGMENTATION DATA ----------
                                        COORDINATES IN METERS
                            I+ AND I- INDICATE THE SEGMENTS BEFORE AND AFTER I

   SEG    COORDINATES OF SEGM CENTER     SEGM    ORIENTATION ANGLES    WIRE    CONNECTION DATA   TAG
   No:       X         Y         Z      LENGTH     ALPHA      BETA    RADIUS    I-     I    I+   NO:
     1    0.0000   -0.1340    0.0000    0.0670    0.0000   90.0000    0.0070   -79     1     2     1
     2    0.0000   -0.0670    0.0000    0.0670    0.0000   90.0000    0.0070    79     2     3     1
     3    0.0000    0.0000    0.0000    0.0670    0.0000   90.0000    0.0070    80     3     4     1
     4    0.0000    0.0670    0.0000    0.0670    0.0000   90.0000    0.0070    81     4     5     1
     5    0.0000    0.1340    0.0000    0.0670    0.0000   90.0000    0.0070    82     5   -83     1
     6   -0.1005   -0.1608    0.0000    0.0804    0.0000   90.0000    0.0070     0     6     7     2
     7   -0.1005   -0.0804    0.0000    0.0804    0.0000   90.0000    0.0070     6     7     8     2
     8   -0.1005   -0.0000    0.0000    0.0804    0.0000   90.0000    0.0070     7     8     9     2
     9   -0.1005    0.0804    0.0000    0.0804    0.0000   90.0000    0.0070     8     9    10     2
    10   -0.1005    0.1608    0.0000    0.0804    0.0000   90.0000    0.0070     9    10     0     2
    11   -0.2211   -0.1928    0.0000    0.0964    0.0000   90.0000    0.0080     0    11    12     3
    12   -0.2211   -0.0964    0.0000    0.0964    0.0000   90.0000    0.0080    11    12    13     3
    13   -0.2211   -0.0000    0.0000    0.0964    0.0000   90.0000    0.0080    12    13    14     3
    14   -0.2211    0.0964    0.0000    0.0964    0.0000   90.0000    0.0080    13    14    15     3
    15   -0.2211    0.1928    0.0000    0.0964    0.0000   90.0000    0.0080    14    15     0     3
    16   -0.3658   -0.2316    0.0000    0.1158    0.0000   90.0000    0.0080     0    16    17     4
    17   -0.3658   -0.1158    0.0000    0.1158    0.0000   90.0000    0.0080    16    17    18     4
    18   -0.3658   -0.0000    0.0000    0.1158    0.0000   90.0000    0.0080    17    18    19     4
    19   -0.3658    0.1158    0.0000    0.1158    0.0000   90.0000    0.0080    18    19    20     4
    20   -0.3658    0.2316    0.0000    0.1158    0.0000   90.0000    0.0080    19    20     0     4
    21   -0.5394   -0.2776    0.0000    0.1388    0.0000   90.0000    0.0090     0    21    22     5
    22   -0.5394   -0.1388    0.0000    0.1388    0.0000   90.0000    0.0090    21    22    23     5
    23   -0.5394   -0.0000    0.0000    0.1388    0.0000   90.0000    0.0090    22    23    24     5
    24   -0.5394    0.1388    0.0000    0.1388    0.0000   90.0000    0.0090    23    24    25     5
    25   -0.5394    0.2776    0.0000    0.1388    0.0000   90.0000    0.0090    24    25     0     5
    26   -0.7474   -0.3570    0.0000    0.1190    0.0000   90.0000    0.0100     0    26    27     6
    27   -0.7474   -0.2380    0.0000    0.1190    0.0000   90.0000    0.0100    26    27    28     6
    28   -0.7474   -0.1190    0.0000    0.1190    0.0000   90.0000    0.0100    27    28    29     6
    29   -0.7474    0.0000    0.0000    0.1190    0.0000   90.0000    0.0100    28    29    30     6
    30   -0.7474    0.1190    0.0000    0.1190    0.0000   90.0000    0.0100    29    30    31     6
    31   -0.7474    0.2380    0.0000    0.1190    0.0000   90.0000    0.0100    30    31    32     6
    32   -0.7474    0.3570    0.0000    0.1190    0.0000   90.0000    0.0100    31    32     0     6
    33   -0.9974   -0.4286    0.0000    0.1429    0.0000   90.0000    0.0100     0    33    34     7
    34   -0.9974   -0.2857    0.0000    0.1429    0.0000   90.0000    0.0100    33    34    35     7
    35   -0.9974   -0.1429    0.0000    0.1429    0.0000   90.0000    0.0100    34    35    36     7
    36   -0.9974   -0.0000    0.0000    0.1429    0.0000   90.0000    0.0100    35    36    37     7
    37   -0.9974    0.1429    0.0000    0.1429    0.0000   90.0000    0.0100    36    37    38     7
    38   -0.9974    0.2857    0.0000    0.1429    0.0000   90.0000    0.0100    37    38    39     7
    39   -0.9974    0.4286    0.0000    0.1429    0.0000   90.0000    0.0100    38    39     0     7
    40   -1.2974   -0.5143    0.0000    0.1714    0.0000   90.0000    0.0110     0    40    41     8
    41   -1.2974   -0.3429    0.0000    0.1714    0.0000   90.0000    0.0110    40    41    42     8
    42   -1.2974   -0.1714    0.0000    0.1714    0.0000   90.0000    0.0110    41    42    43     8
    43   -1.2974    0.0000    0.0000    0.1714    0.0000   90.0000    0.0110    42    43    44     8
    44   -1.2974    0.1714    0.0000    0.1714    0.0000   90.0000    0.0110    43    44    45     8
    45   -1.2974    0.3429    0.0000    0.1714    0.0000   90.0000    0.0110    44    45    46     8
    46   -1.2974    0.5143    0.0000    0.1714    0.0000   90.0000    0.0110    45    46     0     8
    47   -1.6574   -0.6171    0.0000    0.2057    0.0000   90.0000    0.0120     0    47    48     9
    48   -1.6574   -0.4114    0.0000    0.2057    0.0000   90.0000    0.0120    47    48    49     9
    49   -1.6574   -0.2057    0.0000    0.2057    0.0000   90.0000    0.0120    48    49    50     9
    50   -1.6574    0.0000    0.0000    0.2057    0.0000   90.0000    0.0120    49    50    51     9
    51   -1.6574    0.2057    0.0000    0.2057    0.0000   90.0000    0.0120    50    51    52     9
    52   -1.6574    0.4114    0.0000    0.2057    0.0000   90.0000    0.0120    51    52    53     9
    53   -1.6574    0.6171    0.0000    0.2057    0.0000   90.0000    0.0120    52    53     0     9
    54   -2.0894   -0.7406    0.0000    0.2469    0.0000   90.0000    0.0130     0    54    55    10
    55   -2.0894   -0.4937    0.0000    0.2469    0.0000   90.0000    0.0130    54    55    56    10
    56   -2.0894   -0.2469    0.0000    0.2469    0.0000   90.0000    0.0130    55    56    57    10
    57   -2.0894    0.0000    0.0000    0.2469    0.0000   90.0000    0.0130    56    57    58    10
    58   -2.0894    0.2469    0.0000    0.2469    0.0000   90.0000    0.0130    57    58    59    10
    59   -2.0894    0.4937    0.0000    0.2469    0.0000   90.0000    0.0130    58    59    60    10
    60   -2.0894    0.7406    0.0000    0.2469    0.0000   90.0000    0.0130    59    60     0    10
    61   -2.6074   -0.9200    0.0000    0.2300    0.0000   90.0000    0.0140     0    61    62    11
    62   -2.6074   -0.6900    0.0000    0.2300    0.0000   90.0000    0.0140    61    62    63    11
    63   -2.6074   -0.4600    0.0000    0.2300    0.0000   90.0000    0.0140    62    63    64    11
    64   -2.6074   -0.2300    0.0000    0.2300    0.0000   90.0000    0.0140    63    64    65    11
    65   -2.6074    0.0000    0.0000    0.2300    0.0000   90.0000    0.0140    64    65    66    11
    66   -2.6074    0.2300    0.0000    0.2300    0.0000   90.0000    0.0140    65    66    67    11
    67   -2.6074    0.4600    0.0000    0.2300    0.0000   90.0000    0.0140    66    67    68    11
    68   -2.6074    0.6900    0.0000    0.2300    0.0000   90.0000    0.0140    67    68    69    11
    69   -2.6074    0.9200    0.0000    0.2300    0.0000   90.0000    0.0140    68    69     0    11
    70   -3.2294   -1.1067    0.0000    0.2767    0.0000   90.0000    0.0150     0    70    71    12
    71   -3.2294   -0.8300    0.0000    0.2767    0.0000   90.0000    0.0150    70    71    72    12
    72   -3.2294   -0.5533    0.0000    0.2767    0.0000   90.0000    0.0150    71    72    73    12
    73   -3.2294   -0.2767    0.0000    0.2767    0.0000   90.0000    0.0150    72    73    74    12
    74   -3.2294   -0.0000    0.0000    0.2767    0.0000   90.0000    0.0150    73    74    75    12
    75   -3.2294    0.2767    0.0000    0.2767    0.0000   90.0000    0.0150    74    75    76    12
    76   -3.2294    0.5533    0.0000    0.2767    0.0000   90.0000    0.0150    75    76    77    12
    77   -3.2294    0.8300    0.0000    0.2767    0.0000   90.0000    0.0150    76    77    78    12
    78   -3.2294    1.1067    0.0000    0.2767    0.0000   90.0000    0.0150    77    78     0    12
    79    0.0000   -0.1340    0.0000    0.0670    0.0000   90.0000    0.0070    -1    79    80    13
    80    0.0000   -0.0670    0.0000    0.0670    0.0000   90.0000    0.0070     1    80    81    13
    81    0.0000    0.0000    0.0000    0.0670    0.0000   90.0000    0.0070     2    81    82    13
    82    0.0000    0.0670    0.0000    0.0670    0.0000   90.0000    0.0070     3    82    83    13
    83    0.0000    0.1340    0.0000    0.0670    0.0000   90.0000    0.0070     4    83    -5    13
    84   -0.0870   -0.1608    0.0503    0.0804    0.0000   90.0000    0.0070     0    84    85    14
    85   -0.0870   -0.0804    0.0503    0.0804    0.0000   90.0000    0.0070    84    85    86    14
    86   -0.0870   -0.0000    0.0503    0.0804    0.0000   90.0000    0.0070    85    86    87    14
    87   -0.0870    0.0804    0.0503    0.0804    0.0000   90.0000    0.0070    86    87    88    14
    88   -0.0870    0.1608    0.0503    0.0804    0.0000   90.0000    0.0070    87    88     0    14
    89   -0.1915   -0.1928    0.1106    0.0964    0.0000   90.0000    0.0080     0    89    90    15
    90   -0.1915   -0.0964    0.1106    0.0964    0.0000   90.0000    0.0080    89    90    91    15
    91   -0.1915   -0.0000    0.1106    0.0964    0.0000   90.0000    0.0080    90    91    92    15
    92   -0.1915    0.0964    0.1106    0.0964    0.0000   90.0000    0.0080    91    92    93    15
    93   -0.1915    0.1928    0.1106    0.0964    0.0000   90.0000    0.0080    92    93     0    15
    94   -0.3168   -0.2316    0.1829    0.1158    0.0000   90.0000    0.0080     0    94    95    16
    95   -0.3168   -0.1158    0.1829    0.1158    0.0000   90.0000    0.0080    94    95    96    16
    96   -0.3168   -0.0000    0.1829    0.1158    0.0000   90.0000    0.0080    95    96    97    16
    97   -0.3168    0.1158    0.1829    0.1158    0.0000   90.0000    0.0080    96    97    98    16
    98   -0.3168    0.2316    0.1829    0.1158    0.0000   90.0000    0.0080    97    98     0    16
    99   -0.4671   -0.2776    0.2697    0.1388    0.0000   90.0000    0.0090     0    99   100    17
   100   -0.4671   -0.1388    0.2697    0.1388    0.0000   90.0000    0.0090    99   100   101    17
   101   -0.4671   -0.0000    0.2697    0.1388    0.0000   90.0000    0.0090   100   101   102    17
   102   -0.4671    0.1388    0.2697    0.1388    0.0000   90.0000    0.0090   101   102   103    17
   103   -0.4671    0.2776    0.2697    0.1388    0.0000   90.0000    0.0090   102   103     0    17
   104   -0.6473   -0.3570    0.3737    0.1190    0.0000   90.0000    0.0100     0   104   105    18
   105   -0.6473   -0.2380    0.3737    0.1190    0.0000   90.0000    0.0100   104   105   106    18
   106   -0.6473   -0.1190    0.3737    0.1190    0.0000   90.0000    0.0100   105   106   107    18
   107   -0.6473    0.0000    0.3737    0.1190    0.0000   90.0000    0.0100   106   107   108    18
   108   -0.6473    0.1190    0.3737    0.1190    0.0000   90.0000    0.0100   107   108   109    18
   109   -0.6473    0.2380    0.3737    0.1190    0.0000   90.0000    0.0100   108   109   110    18
   110   -0.6473    0.3570    0.3737    0.1190    0.0000   90.0000    0.0100   109   110     0    18
   111   -0.8638   -0.4286    0.4987    0.1429    0.0000   90.0000    0.0100     0   111   112    19
   112   -0.8638   -0.2857    0.4987    0.1429    0.0000   90.0000    0.0100   111   112   113    19
   113   -0.8638   -0.1429    0.4987    0.1429    0.0000   90.0000    0.0100   112   113   114    19
   114   -0.8638   -0.0000    0.4987    0.1429    0.0000   90.0000    0.0100   113   114   115    19
   115   -0.8638    0.1429    0.4987    0.1429    0.0000   90.0000    0.0100   114   115   116    19
   116   -0.8638    0.2857    0.4987    0.1429    0.0000   90.0000    0.0100   115   116   117    19
   117   -0.8638    0.4286    0.4987    0.1429    0.0000   90.0000    0.0100   116   117     0    19
   118   -1.1236   -0.5143    0.6487    0.1714    0.0000   90.0000    0.0110     0   118   119    20
   119   -1.1236   -0.3429    0.6487    0.1714    0.0000   90.0000    0.0110   118   119   120    20
   120   -1.1236   -0.1714    0.6487    0.1714    0.0000   90.0000    0.0110   119   120   121    20
   121   -1.1236    0.0000    0.6487    0.1714    0.0000   90.0000    0.0110   120   121   122    20
   122   -1.1236    0.1714    0.6487    0.1714    0.0000   90.0000    0.0110   121   122   123    20
   123   -1.1236    0.3429    0.6487    0.1714    0.0000   90.0000    0.0110   122   123   124    20
   124   -1.1236    0.5143    0.6487    0.1714    0.0000   90.0000    0.0110   123   124     0    20
   125   -1.4354   -0.6171    0.8287    0.2057    0.0000   90.0000    0.0120     0   125   126    21
   126   -1.4354   -0.4114    0.8287    0.2057    0.0000   90.0000    0.0120   125   126   127    21
   127   -1.4354   -0.2057    0.8287    0.2057    0.0000   90.0000    0.0120   126   127   128    21
   128   -1.4354    0.0000    0.8287    0.2057    0.0000   90.0000    0.0120   127   128   129    21
   129   -1.4354    0.2057    0.8287    0.2057    0.0000   90.0000    0.0120   128   129   130    21
   130   -1.4354    0.4114    0.8287    0.2057    0.0000   90.0000    0.0120   129   130   131    21
   131   -1.4354    0.6171    0.8287    0.2057    0.0000   90.0000    0.0120   130   131     0    21
   132   -1.8095   -0.7406    1.0447    0.2469    0.0000   90.0000    0.0130     0   132   133    22
   133   -1.8095   -0.4937    1.0447    0.2469    0.0000   90.0000    0.0130   132   133   134    22
   134   -1.8095   -0.2469    1.0447    0.2469    0.0000   90.0000    0.0130   133   134   135    22
   135   -1.8095    0.0000    1.0447    0.2469    0.0000   90.0000    0.0130   134   135   136    22
   136   -1.8095    0.2469    1.0447    0.2469    0.0000   90.0000    0.0130   135   136   137    22
   137   -1.8095    0.4937    1.0447    0.2469    0.0000   90.0000    0.0130   136   137   138    22
   138   -1.8095    0.7406    1.0447    0.2469    0.0000   90.0000    0.0130   137   138     0    22
   139   -2.2581   -0.9200    1.3037    0.2300    0.0000   90.0000    0.0140     0   139   140    23
   140   -2.2581   -0.6900    1.3037    0.2300    0.0000   90.0000    0.0140   139   140   141    23
   141   -2.2581   -0.4600    1.3037    0.2300    0.0000   90.0000    0.0140   140   141   142    23
   142   -2.2581   -0.2300    1.3037    0.2300    0.0000   90.0000    0.0140   141   142   143    23
   143   -2.2581    0.0000    1.3037    0.2300    0.0000   90.0000    0.0140   142   143   144    23
   144   -2.2581    0.2300    1.3037    0.2300    0.0000   90.0000    0.0140   143   144   145    23
   145   -2.2581    0.4600    1.3037    0.2300    0.0000   90.0000    0.0140   144   145   146    23
   146   -2.2581    0.6900    1.3037    0.2300    0.0000   90.0000    0.0140   145   146   147    23
   147   -2.2581    0.9200    1.3037    0.2300    0.0000   90.0000    0.0140   146   147     0    23
   148   -2.7967   -1.1067    1.6147    0.2767    0.0000   90.0000    0.0150     0   148   149    24
   149   -2.7967   -0.8300    1.6147    0.2767    0.0000   90.0000    0.0150   148   149   150    24
   150   -2.7967   -0.5533    1.6147    0.2767    0.0000   90.0000    0.0150   149   150   151    24
   151   -2.7967   -0.2767    1.6147    0.2767    0.0000   90.0000    0.0150   150   151   152    24
   152   -2.7967   -0.0000    1.6147    0.2767    0.0000   90.0000    0.0150   151   152   153    24
   153   -2.7967    0.2767    1.6147    0.2767    0.0000   90.0000    0.0150   152   153   154    24
   154   -2.7967    0.5533    1.6147    0.2767    0.0000   90.0000    0.0150   153   154   155    24
   155   -2.7967    0.8300    1.6147    0.2767    0.0000   90.0000    0.0150   154   155   156    24
   156   -2.7967    1.1067    1.6147    0.2767    0.0000   90.0000    0.0150   155   156     0    24



*****  DATA CARD N0.   1 FR   0     0     0     0  1.50000E+02  0.00000E+00  0.00000E+00  0.00000E+00  0.00000E+00  0.00000E+00
*****  DATA CARD N0.   2 LD   5     0     0     0  3.70000E+07  0.00000E+00  0.00000E+00  0.00000E+00  0.00000E+00  0.00000E+00
*****  DATA CARD N0.   3 TL   1     3     2     3 -5.00000E+01  0.00000E+00  0.00000E+00  0.00000E+00  0.00000E+00  0.00000E+00
*****  DATA CARD N0.   4 TL   2     3     3     3 -5.00000E+01  0.00000E+00  0.00000E+00  0.00000E+00  0.00000E+00  0.00000E+00
*****  DATA CARD N0.   5 TL   3     3     4     3 -5.00000E+01  0.00000E+00  0.00000E+00  0.00000E+00  0.00000E+00  0.00000E+00
*****  DATA CARD N0.   6 TL   4     3     5     3 -5.00000E+01  0.00000E+00  0.00000E+00  0.00000E+00  0.00000E+00  0.00000E+00
*****  DATA CARD N0.   7 TL   5     3     6     4 -5.00000E+01  0.00000E+00  0.00000E+00  0.00000E+00  0.00000E+00  0.00000E+00
*****  DATA CARD N0.   8 TL   6     4     7     4 -5.00000E+01  0.00000E+00  0.00000E+00  0.00000E+00  0.00000E+00  0.00000E+00
*****  DATA CARD N0.   9 TL   7     4     8     4 -5.00000E+01  0.00000E+00  0.00000E+00  0.00000E+00  0.00000E+00  0.00000E+00
*****  DATA CARD N0.  10 TL   8     4     9     4 -5.00000E+01  0.00000E+00  0.00000E+00  0.00000E+00  0.00000E+00  0.00000E+00
*****  DATA CARD N0.  11 TL   9     4    10     4 -5.00000E+01  0.00000E+00  0.00000E+00  0.00000E+00  0.00000E+00  0.00000E+00
*****  DATA CARD N0.  12 TL  10     4    11     5 -5.00000E+01  0.00000E+00  0.00000E+00  0.00000E+00  0.00000E+00  0.00000E+00
*****  DATA CARD N0.  13 TL  11     5    12     5 -5.00000E+01  0.00000E+00  0.00000E+00  0.00000E+00  2.00000E-02  0.00000E+00
*****  DATA CARD N0.  14 EX   0     1     3     0  1.00000E+00  0.00000E+00  0.00000E+00  0.00000E+00  0.00000E+00  0.00000E+00
*****  DATA CARD N0.  15 EX   0    13     3     0  1.00000E+00  0.00000E+00  0.00000E+00  0.00000E+00  0.00000E+00  0.00000E+00
*****  DATA CARD N0.  16 RP   0    37     1  1000 -1.50000E+01  0.00000E+00  5.00000E+00  5.00000E+00  0.00000E+00  0.00000E+00


                               --------- FREQUENCY --------
                               FREQUENCY=  1.5000E+02 MHZ
                               WAVELENGTH= 1.9987E+00 METERS


                        APPROXIMATE INTEGRATION EMPLOYED FOR SEGMENTS
                        THAT ARE MORE THAN 1.000 WAVELENGTHS APART



                          ------ STRUCTURE IMPEDANCE LOADING ------

  LOCATION        RESISTANCE  INDUCTANCE  CAPACITANCE     IMPEDANCE (OHMS)   CONDUCTIVITY  CIRCUIT
  ITAG FROM THRU     OHMS       HENRYS      FARADS       REAL     IMAGINARY   MHOS/METER      TYPE
  ALL                                                                        3.7000E+07     WIRE  


                            -------- ANTENNA ENVIRONMENT --------

                            FREE SPACE


                             ---------- MATRIX TIMING ----------
                               FILL= 540 msec  FACTOR: 260 msec


                                            ---------- NETWORK DATA ----------
  -- FROM -  --- TO --      TRANSMISSION LINE        --------- SHUNT ADMITTANCES (MHOS) ---------   LINE
  TAG   SEG  TAG   SEG    IMPEDANCE      LENGTH     ----- END ONE -----      ----- END TWO -----   TYPE
  No:   No:  No:   No:         OHMS      METERS      REAL      IMAGINARY      REAL      IMAGINARY
    1     3    2     8   5.0000E+01  1.0050E-01   0.0000E+00  0.0000E+00   0.0000E+00  0.0000E+00  CROSSED
    2     8    3    13   5.0000E+01  1.2060E-01   0.0000E+00  0.0000E+00   0.0000E+00  0.0000E+00  CROSSED
    3    13    4    18   5.0000E+01  1.4470E-01   0.0000E+00  0.0000E+00   0.0000E+00  0.0000E+00  CROSSED
    4    18    5    23   5.0000E+01  1.7360E-01   0.0000E+00  0.0000E+00   0.0000E+00  0.0000E+00  CROSSED
    5    23    6    29   5.0000E+01  2.0800E-01   0.0000E+00  0.0000E+00   0.0000E+00  0.0000E+00  CROSSED
    6    29    7    36   5.0000E+01  2.5000E-01   0.0000E+00  0.0000E+00   0.0000E+00  0.0000E+00  CROSSED
    7    36    8    43   5.0000E+01  3.0000E-01   0.0000E+00  0.0000E+00   0.0000E+00  0.0000E+00  CROSSED
    8    43    9    50   5.0000E+01  3.6000E-01   0.0000E+00  0.0000E+00   0.0000E+00  0.0000E+00  CROSSED
    9    50   10    57   5.0000E+01  4.3200E-01   0.0000E+00  0.0000E+00   0.0000E+00  0.0000E+00  CROSSED
   10    57   11    65   5.0000E+01  5.1800E-01   0.0000E+00  0.0000E+00   0.0000E+00  0.0000E+00  CROSSED
   11    65   12    74   5.0000E+01  6.2200E-01   0.0000E+00  0.0000E+00   2.0000E-02  0.0000E+00  CROSSED


                          --------- STRUCTURE EXCITATION DATA AT NETWORK CONNECTION POINTS --------
  TAG   SEG       VOLTAGE (VOLTS)          CURRENT (AMPS)         IMPEDANCE (OHMS)       ADMITTANCE (MHOS)     POWER
  No:   No:     REAL      IMAGINARY     REAL      IMAGINARY     REAL      IMAGINARY     REAL      IMAGINARY   (WATTS)
   12     8 -1.0438E+00  3.1657E-01 -1.1819E-03 -3.4121E-03  1.1777E+01 -3.0184E+02  1.2907E-04  3.3080E-03  7.6781E-05
   12    13  8.9723E-01 -6.3064E-01  2.0535E-03  2.3400E-03  3.7840E+01 -3.5023E+02  3.0493E-04  2.8223E-03  1.8337E-04
   12    18 -5.0492E-01  8.4108E-01 -3.6130E-03 -3.7922E-03 -4.9765E+01 -1.8056E+02 -1.4187E-03  5.1473E-03 -6.8265E-04
   12    23 -1.9097E-01 -7.7270E-01  7.5934E-03 -3.5875E-03  1.8743E+01 -9.2904E+01  2.0866E-03  1.0343E-02  6.6097E-04
   12    29  8.2547E-01  1.7070E-01  7.1678E-03  1.5081E-02  3.0454E+01 -4.0261E+01  1.1950E-02  1.5799E-02  4.2455E-03
   12    36 -5.8984E-01  3.6694E-01 -3.1444E-03  4.6341E-03  1.1336E+02  5.0365E+01  7.3673E-03 -3.2733E-03  1.7776E-03
   12    43  6.6477E-02 -5.8022E-01 -4.3954E-03 -1.3911E-03  2.4226E+01  1.2434E+02  1.5097E-03 -7.7485E-03  2.5746E-04
   12    50  5.2476E-01  4.1628E-01  1.5056E-04 -2.5804E-04 -3.1827E+02  2.2194E+03 -6.3315E-05 -4.4150E-04 -1.4203E-05
   12    57 -4.3608E-01  3.4023E-01 -7.8418E-04  8.1684E-04  4.8346E+02  6.9729E+01  2.0263E-03 -2.9224E-04  3.0994E-04
   12    65 -4.2628E-01 -4.3980E-01  1.2528E-04 -8.6723E-04  4.2720E+02 -5.5326E+02  8.7435E-04  1.1323E-03  1.6400E-04
   12    74  1.8198E-01 -5.1023E-01  1.7193E-03 -4.6585E-04  1.7352E+02 -2.4975E+02  1.8762E-03  2.7005E-03  2.7529E-04
    1     3  1.0000E+00  0.0000E+00 -1.3004E-04  9.3813E-04 -1.4497E+02 -1.0459E+03 -1.3004E-04  9.3813E-04 -6.5021E-05


                        --------- ANTENNA INPUT PARAMETERS ---------
  TAG   SEG       VOLTAGE (VOLTS)         CURRENT (AMPS)         IMPEDANCE (OHMS)        ADMITTANCE (MHOS)     POWER
  NO.   NO.     REAL      IMAGINARY     REAL      IMAGINARY     REAL      IMAGINARY    REAL       IMAGINARY   (WATTS)
    1     3  1.0000E+00  0.0000E+00  2.0247E-02  6.9454E-03  4.4190E+01 -1.5158E+01  2.0247E-02  6.9454E-03  1.0124E-02
   13    81  1.0000E+00  0.0000E+00 -1.3004E-04  9.3813E-04 -1.4497E+02 -1.0459E+03 -1.3004E-04  9.3813E-04 -6.5021E-05


                           -------- CURRENTS AND LOCATION --------
                                  DISTANCES IN WAVELENGTHS

   SEG  TAG    COORDINATES OF SEGM CENTER     SEGM    ------------- CURRENT (AMPS) -------------
   No:  No:       X         Y         Z      LENGTH     REAL      IMAGINARY    MAGN        PHASE
     1    1    0.0000   -0.0670    0.0000   0.03352 -7.2719E-05  2.7475E-04  2.8421E-04  104.825
     2    1    0.0000   -0.0335    0.0000   0.03352 -1.2544E-04  6.6547E-04  6.7719E-04  100.675
     3    1    0.0000    0.0000    0.0000   0.03352 -1.3004E-04  9.3813E-04  9.4710E-04   97.892
     4    1    0.0000    0.0335    0.0000   0.03352 -1.0882E-04  5.3722E-04  5.4813E-04  101.451
     5    1    0.0000    0.0670    0.0000   0.03352 -5.4977E-05  1.7428E-04  1.8274E-04  107.508
     6    2   -0.0503   -0.0805    0.0000   0.04023 -3.8520E-04 -1.0301E-03  1.0998E-03 -110.503
     7    2   -0.0503   -0.0402    0.0000   0.04023 -8.7100E-04 -2.4474E-03  2.5978E-03 -109.590
     8    2   -0.0503   -0.0000    0.0000   0.04023 -1.1819E-03 -3.4121E-03  3.6110E-03 -109.106
     9    2   -0.0503    0.0402    0.0000   0.04023 -8.7442E-04 -2.4252E-03  2.5780E-03 -109.827
    10    2   -0.0503    0.0805    0.0000   0.04023 -3.8801E-04 -1.0155E-03  1.0871E-03 -110.911
    11    3   -0.1106   -0.0965    0.0000   0.04823  5.3644E-04  4.7110E-04  7.1394E-04   41.290
    12    3   -0.1106   -0.0482    0.0000   0.04823  1.4013E-03  1.4683E-03  2.0297E-03   46.339
    13    3   -0.1106   -0.0000    0.0000   0.04823  2.0535E-03  2.3400E-03  3.1132E-03   48.731
    14    3   -0.1106    0.0482    0.0000   0.04823  1.4008E-03  1.4709E-03  2.0312E-03   46.400
    15    3   -0.1106    0.0965    0.0000   0.04823  5.3598E-04  4.7325E-04  7.1501E-04   41.443
    16    4   -0.1830   -0.1159    0.0000   0.05794 -9.9876E-04 -1.3544E-03  1.6828E-03 -126.406
    17    4   -0.1830   -0.0579    0.0000   0.05794 -2.5530E-03 -2.9652E-03  3.9128E-03 -130.728
    18    4   -0.1830   -0.0000    0.0000   0.05794 -3.6130E-03 -3.7922E-03  5.2378E-03 -133.614
    19    4   -0.1830    0.0579    0.0000   0.05794 -2.5532E-03 -2.9645E-03  3.9124E-03 -130.737
    20    4   -0.1830    0.1159    0.0000   0.05794 -9.9893E-04 -1.3538E-03  1.6824E-03 -126.423
    21    5   -0.2699   -0.1389    0.0000   0.06945  2.6218E-03 -1.3668E-03  2.9567E-03  -27.535
    22    5   -0.2699   -0.0694    0.0000   0.06945  5.9308E-03 -2.9440E-03  6.6213E-03  -26.400
    23    5   -0.2699   -0.0000    0.0000   0.06945  7.5934E-03 -3.5875E-03  8.3982E-03  -25.289
    24    5   -0.2699    0.0694    0.0000   0.06945  5.9306E-03 -2.9437E-03  6.6210E-03  -26.398
    25    5   -0.2699    0.1389    0.0000   0.06945  2.6217E-03 -1.3666E-03  2.9565E-03  -27.531
    26    6   -0.3739   -0.1786    0.0000   0.05954  2.4395E-03  4.0848E-03  4.7577E-03   59.154
    27    6   -0.3739   -0.1191    0.0000   0.05954  5.2525E-03  9.4537E-03  1.0815E-02   60.943
    28    6   -0.3739   -0.0595    0.0000   0.05954  6.7744E-03  1.3208E-02  1.4844E-02   62.846
    29    6   -0.3739    0.0000    0.0000   0.05954  7.1678E-03  1.5081E-02  1.6698E-02   64.579
    30    6   -0.3739    0.0595    0.0000   0.05954  6.7744E-03  1.3208E-02  1.4844E-02   62.847
    31    6   -0.3739    0.1191    0.0000   0.05954  5.2524E-03  9.4540E-03  1.0815E-02   60.945
    32    6   -0.3739    0.1786    0.0000   0.05954  2.4394E-03  4.0849E-03  4.7579E-03   59.156
    33    7   -0.4990   -0.2144    0.0000   0.07148 -5.3871E-04  1.9017E-03  1.9765E-03  105.816
    34    7   -0.4990   -0.1430    0.0000   0.07148 -1.5454E-03  3.9993E-03  4.2875E-03  111.127
    35    7   -0.4990   -0.0715    0.0000   0.07148 -2.5111E-03  4.8184E-03  5.4335E-03  117.526
    36    7   -0.4990   -0.0000    0.0000   0.07148 -3.1444E-03  4.6341E-03  5.6002E-03  124.159
    37    7   -0.4990    0.0715    0.0000   0.07148 -2.5112E-03  4.8187E-03  5.4337E-03  117.525
    38    7   -0.4990    0.1430    0.0000   0.07148 -1.5454E-03  3.9997E-03  4.2879E-03  111.126
    39    7   -0.4990    0.2144    0.0000   0.07148 -5.3874E-04  1.9019E-03  1.9767E-03  105.816
    40    8   -0.6491   -0.2573    0.0000   0.08577 -1.6255E-03 -3.1837E-04  1.6564E-03 -168.918
    41    8   -0.6491   -0.1715    0.0000   0.08577 -3.6761E-03 -8.8072E-04  3.7802E-03 -166.527
    42    8   -0.6491   -0.0858    0.0000   0.08577 -4.5882E-03 -1.2911E-03  4.7664E-03 -164.283
    43    8   -0.6491    0.0000    0.0000   0.08577 -4.3954E-03 -1.3911E-03  4.6103E-03 -162.439
    44    8   -0.6491    0.0858    0.0000   0.08577 -4.5881E-03 -1.2908E-03  4.7662E-03 -164.287
    45    8   -0.6491    0.1715    0.0000   0.08577 -3.6760E-03 -8.8023E-04  3.7799E-03 -166.534
    46    8   -0.6491    0.2573    0.0000   0.08577 -1.6254E-03 -3.1806E-04  1.6562E-03 -168.928
    47    9   -0.8293   -0.3088    0.0000   0.10293  3.5466E-04 -5.5315E-04  6.5708E-04  -57.334
    48    9   -0.8293   -0.2059    0.0000   0.10293  7.2028E-04 -1.0500E-03  1.2733E-03  -55.550
    49    9   -0.8293   -0.1029    0.0000   0.10293  6.1969E-04 -8.7508E-04  1.0723E-03  -54.696
    50    9   -0.8293    0.0000    0.0000   0.10293  1.5056E-04 -2.5804E-04  2.9875E-04  -59.737
    51    9   -0.8293    0.1029    0.0000   0.10293  6.2000E-04 -8.7494E-04  1.0723E-03  -54.678
    52    9   -0.8293    0.2059    0.0000   0.10293  7.2072E-04 -1.0498E-03  1.2734E-03  -55.529
    53    9   -0.8293    0.3088    0.0000   0.10293  3.5492E-04 -5.5303E-04  6.5713E-04  -57.309
    54   10   -1.0454   -0.3705    0.0000   0.12351  2.3390E-04  6.1011E-04  6.5341E-04   69.024
    55   10   -1.0454   -0.2470    0.0000   0.12351  2.6465E-04  1.3357E-03  1.3617E-03   78.793
    56   10   -1.0454   -0.1235    0.0000   0.12351 -1.8360E-04  1.3557E-03  1.3681E-03   97.713
    57   10   -1.0454    0.0000    0.0000   0.12351 -7.8418E-04  8.1684E-04  1.1323E-03  133.831
    58   10   -1.0454    0.1235    0.0000   0.12351 -1.8401E-04  1.3544E-03  1.3669E-03   97.737
    59   10   -1.0454    0.2470    0.0000   0.12351  2.6410E-04  1.3340E-03  1.3599E-03   78.802
    60   10   -1.0454    0.3705    0.0000   0.12351  2.3359E-04  6.0916E-04  6.5241E-04   69.020
    61   11   -1.3046   -0.4603    0.0000   0.11508 -4.9721E-04  5.4262E-04  7.3598E-04  132.500
    62   11   -1.3046   -0.3452    0.0000   0.11508 -1.0595E-03  9.6306E-04  1.4318E-03  137.731
    63   11   -1.3046   -0.2302    0.0000   0.11508 -1.1105E-03  7.1839E-04  1.3226E-03  147.102
    64   11   -1.3046   -0.1151    0.0000   0.11508 -6.0620E-04 -4.7925E-05  6.0809E-04 -175.480
    65   11   -1.3046    0.0000    0.0000   0.11508  1.2528E-04 -8.6723E-04  8.7623E-04  -81.780
    66   11   -1.3046    0.1151    0.0000   0.11508 -6.0522E-04 -4.7232E-05  6.0707E-04 -175.538
    67   11   -1.3046    0.2302    0.0000   0.11508 -1.1090E-03  7.1946E-04  1.3220E-03  147.027
    68   11   -1.3046    0.3452    0.0000   0.11508 -1.0582E-03  9.6405E-04  1.4315E-03  137.665
    69   11   -1.3046    0.4603    0.0000   0.11508 -4.9659E-04  5.4307E-04  7.3589E-04  132.440
    70   12   -1.6158   -0.5537    0.0000   0.13843 -9.6967E-04 -1.3863E-04  9.7953E-04 -171.864
    71   12   -1.6158   -0.4153    0.0000   0.13843 -1.7865E-03 -5.0021E-04  1.8552E-03 -164.358
    72   12   -1.6158   -0.2769    0.0000   0.13843 -1.2354E-03 -7.7914E-04  1.4606E-03 -147.761
    73   12   -1.6158   -0.1384    0.0000   0.13843  3.1815E-04 -7.4584E-04  8.1086E-04  -66.899
    74   12   -1.6158   -0.0000    0.0000   0.13843  1.7193E-03 -4.6585E-04  1.7813E-03  -15.160
    75   12   -1.6158    0.1384    0.0000   0.13843  3.1816E-04 -7.4605E-04  8.1106E-04  -66.903
    76   12   -1.6158    0.2769    0.0000   0.13843 -1.2353E-03 -7.7943E-04  1.4607E-03 -147.750
    77   12   -1.6158    0.4153    0.0000   0.13843 -1.7864E-03 -5.0042E-04  1.8552E-03 -164.351
    78   12   -1.6158    0.5537    0.0000   0.13843 -9.6961E-04 -1.3870E-04  9.7948E-04 -171.859
    79   13    0.0000   -0.0670    0.0000   0.03352 -7.2719E-05  2.7475E-04  2.8421E-04  104.825
    80   13    0.0000   -0.0335    0.0000   0.03352 -1.2544E-04  6.6547E-04  6.7719E-04  100.675
    81   13    0.0000    0.0000    0.0000   0.03352 -1.3004E-04  9.3813E-04  9.4710E-04   97.892
    82   13    0.0000    0.0335    0.0000   0.03352 -1.0882E-04  5.3722E-04  5.4813E-04  101.451
    83   13    0.0000    0.0670    0.0000   0.03352 -5.4977E-05  1.7428E-04  1.8274E-04  107.508
    84   14   -0.0435   -0.0805    0.0251   0.04023 -1.1733E-04 -1.0802E-04  1.5948E-04 -137.366
    85   14   -0.0435   -0.0402    0.0251   0.04023 -1.6601E-04 -6.2858E-05  1.7752E-04 -159.262
    86   14   -0.0435   -0.0000    0.0251   0.04023 -1.5678E-04  2.7528E-05  1.5918E-04  170.042
    87   14   -0.0435    0.0402    0.0251   0.04023 -1.6944E-04 -4.0604E-05  1.7423E-04 -166.524
    88   14   -0.0435    0.0805    0.0251   0.04023 -1.2014E-04 -9.3451E-05  1.5221E-04 -142.123
    89   15   -0.0958   -0.0965    0.0553   0.04823 -2.0250E-04 -4.7175E-04  5.1337E-04 -113.231
    90   15   -0.0958   -0.0482    0.0553   0.04823 -4.1306E-04 -8.9357E-04  9.8443E-04 -114.809
    91   15   -0.0958   -0.0000    0.0553   0.04823 -4.8538E-04 -1.0187E-03  1.1285E-03 -115.475
    92   15   -0.0958    0.0482    0.0553   0.04823 -4.1358E-04 -8.9096E-04  9.8227E-04 -114.900
    93   15   -0.0958    0.0965    0.0553   0.04823 -2.0295E-04 -4.6960E-04  5.1158E-04 -113.373
    94   16   -0.1585   -0.1159    0.0915   0.05794 -8.5197E-05 -8.0944E-04  8.1391E-04  -96.009
    95   16   -0.1585   -0.0579    0.0915   0.05794 -1.7122E-04 -1.5378E-03  1.5473E-03  -96.353
    96   16   -0.1585   -0.0000    0.0915   0.05794 -1.9622E-04 -1.7404E-03  1.7514E-03  -96.433
    97   16   -0.1585    0.0579    0.0915   0.05794 -1.7140E-04 -1.5371E-03  1.5467E-03  -96.363
    98   16   -0.1585    0.1159    0.0915   0.05794 -8.5369E-05 -8.0887E-04  8.1336E-04  -96.025
    99   17   -0.2337   -0.1389    0.1349   0.06945  2.4171E-04 -1.5668E-03  1.5853E-03  -81.230
   100   17   -0.2337   -0.0694    0.1349   0.06945  4.3462E-04 -3.1348E-03  3.1648E-03  -82.107
   101   17   -0.2337   -0.0000    0.1349   0.06945  4.8033E-04 -3.6087E-03  3.6405E-03  -82.418
   102   17   -0.2337    0.0694    0.1349   0.06945  4.3449E-04 -3.1345E-03  3.1645E-03  -82.108
   103   17   -0.2337    0.1389    0.1349   0.06945  2.4158E-04 -1.5665E-03  1.5851E-03  -81.233
   104   18   -0.3238   -0.1786    0.1870   0.05954  1.0002E-03 -2.6184E-03  2.8029E-03  -69.094
   105   18   -0.3238   -0.1191    0.1870   0.05954  2.1830E-03 -5.8081E-03  6.2048E-03  -69.401
   106   18   -0.3238   -0.0595    0.1870   0.05954  2.8678E-03 -7.7137E-03  8.2296E-03  -69.606
   107   18   -0.3238    0.0000    0.1870   0.05954  3.0991E-03 -8.3677E-03  8.9232E-03  -69.677
   108   18   -0.3238    0.0595    0.1870   0.05954  2.8677E-03 -7.7135E-03  8.2294E-03  -69.606
   109   18   -0.3238    0.1191    0.1870   0.05954  2.1828E-03 -5.8078E-03  6.2045E-03  -69.401
   110   18   -0.3238    0.1786    0.1870   0.05954  1.0001E-03 -2.6182E-03  2.8027E-03  -69.095
   111   19   -0.4322   -0.2144    0.2495   0.07148 -7.1439E-04  1.3691E-03  1.5443E-03  117.555
   112   19   -0.4322   -0.1430    0.2495   0.07148 -1.7437E-03  3.3149E-03  3.7455E-03  117.746
   113   19   -0.4322   -0.0715    0.2495   0.07148 -2.4447E-03  4.6220E-03  5.2287E-03  117.876
   114   19   -0.4322   -0.0000    0.2495   0.07148 -2.6984E-03  5.0917E-03  5.7625E-03  117.922
   115   19   -0.4322    0.0715    0.2495   0.07148 -2.4447E-03  4.6222E-03  5.2289E-03  117.875
   116   19   -0.4322    0.1430    0.2495   0.07148 -1.7438E-03  3.3152E-03  3.7459E-03  117.744
   117   19   -0.4322    0.2144    0.2495   0.07148 -7.1443E-04  1.3694E-03  1.5445E-03  117.552
   118   20   -0.5622   -0.2573    0.3246   0.08577  1.6216E-05 -5.7369E-05  5.9616E-05  -74.216
   119   20   -0.5622   -0.1715    0.3246   0.08577  7.8104E-05 -2.1496E-04  2.2871E-04  -70.032
   120   20   -0.5622   -0.0858    0.3246   0.08577  1.4083E-04 -3.6539E-04  3.9159E-04  -68.922
   121   20   -0.5622    0.0000    0.3246   0.08577  1.6608E-04 -4.2564E-04  4.5690E-04  -68.684
   122   20   -0.5622    0.0858    0.3246   0.08577  1.4094E-04 -3.6506E-04  3.9132E-04  -68.890
   123   20   -0.5622    0.1715    0.3246   0.08577  7.8264E-05 -2.1447E-04  2.2830E-04  -69.952
   124   20   -0.5622    0.2573    0.3246   0.08577  1.6322E-05 -5.7055E-05  5.9344E-05  -74.036
   125   21   -0.7182   -0.3088    0.4146   0.10293 -7.9880E-05  3.9198E-05  8.8979E-05  153.862
   126   21   -0.7182   -0.2059    0.4146   0.10293 -1.8524E-04  9.5071E-05  2.0822E-04  152.832
   127   21   -0.7182   -0.1029    0.4146   0.10293 -2.4841E-04  1.2891E-04  2.7987E-04  152.574
   128   21   -0.7182    0.0000    0.4146   0.10293 -2.6968E-04  1.4014E-04  3.0392E-04  152.542
   129   21   -0.7182    0.1029    0.4146   0.10293 -2.4811E-04  1.2905E-04  2.7966E-04  152.519
   130   21   -0.7182    0.2059    0.4146   0.10293 -1.8481E-04  9.5266E-05  2.0792E-04  152.729
   131   21   -0.7182    0.3088    0.4146   0.10293 -7.9614E-05  3.9309E-05  8.8789E-05  153.722
   132   22   -0.9053   -0.3705    0.5227   0.12351 -1.1285E-04  9.2399E-05  1.4585E-04  140.690
   133   22   -0.9053   -0.2470    0.5227   0.12351 -2.8359E-04  3.1431E-04  4.2333E-04  132.059
   134   22   -0.9053   -0.1235    0.5227   0.12351 -4.0012E-04  5.1426E-04  6.5158E-04  127.885
   135   22   -0.9053    0.0000    0.5227   0.12351 -4.4239E-04  5.9397E-04  7.4061E-04  126.679
   136   22   -0.9053    0.1235    0.5227   0.12351 -4.0053E-04  5.1301E-04  6.5085E-04  127.981
   137   22   -0.9053    0.2470    0.5227   0.12351 -2.8415E-04  3.1260E-04  4.2244E-04  132.270
   138   22   -0.9053    0.3705    0.5227   0.12351 -1.1316E-04  9.1448E-05  1.4549E-04  141.057
   139   23   -1.1298   -0.4603    0.6523   0.11508 -6.8141E-05  6.1087E-05  9.1514E-05  138.125
   140   23   -1.1298   -0.3452    0.6523   0.11508 -1.1657E-04  2.5252E-04  2.7813E-04  114.779
   141   23   -1.1298   -0.2302    0.6523   0.11508 -1.0636E-04  4.9023E-04  5.0163E-04  102.241
   142   23   -1.1298   -0.1151    0.6523   0.11508 -7.8028E-05  6.8545E-04  6.8988E-04   96.494
   143   23   -1.1298    0.0000    0.6523   0.11508 -6.3966E-05  7.6083E-04  7.6352E-04   94.806
   144   23   -1.1298    0.1151    0.6523   0.11508 -7.7056E-05  6.8615E-04  6.9046E-04   96.408
   145   23   -1.1298    0.2302    0.6523   0.11508 -1.0485E-04  4.9130E-04  5.0237E-04  102.047
   146   23   -1.1298    0.3452    0.6523   0.11508 -1.1519E-04  2.5350E-04  2.7845E-04  114.437
   147   23   -1.1298    0.4603    0.6523   0.11508 -6.7520E-05  6.1538E-05  9.1355E-05  137.654
   148   24   -1.3993   -0.5537    0.8079   0.13843 -4.3623E-05  9.9309E-05  1.0847E-04  113.715
   149   24   -1.3993   -0.4153    0.8079   0.13843 -1.0938E-05  2.0175E-04  2.0205E-04   93.103
   150   24   -1.3993   -0.2769    0.8079   0.13843  1.2338E-04  2.1842E-04  2.5086E-04   60.539
   151   24   -1.3993   -0.1384    0.8079   0.13843  2.6772E-04  1.9229E-04  3.2962E-04   35.687
   152   24   -1.3993   -0.0000    0.8079   0.13843  3.2884E-04  1.7565E-04  3.7281E-04   28.109
   153   24   -1.3993    0.1384    0.8079   0.13843  2.6774E-04  1.9208E-04  3.2951E-04   35.656
   154   24   -1.3993    0.2769    0.8079   0.13843  1.2343E-04  2.1812E-04  2.5063E-04   60.496
   155   24   -1.3993    0.4153    0.8079   0.13843 -1.0851E-05  2.0154E-04  2.0183E-04   93.082
   156   24   -1.3993    0.5537    0.8079   0.13843 -4.3559E-05  9.9246E-05  1.0838E-04  113.697


                               ---------- POWER BUDGET ---------
                               INPUT POWER   =  1.0059E-02 Watts
                               RADIATED POWER=  7.1156E-03 Watts
                               STRUCTURE LOSS=  8.4862E-06 Watts
                               NETWORK LOSS  =  2.9345E-03 Watts
                               EFFICIENCY    =   70.74 Percent


                             ---------- RADIATION PATTERNS -----------

 ---- ANGLES -----     ----- POWER GAINS -----       ---- POLARIZATION ----   ---- E(THETA) ----    ----- E(PHI) ------
  THETA      PHI       VERTC    HORIZ    TOTAL       AXIAL      TILT  SENSE   MAGNITUDE    PHASE    MAGNITUDE     PHASE
 DEGREES   DEGREES        DB       DB       DB       RATIO   DEGREES            VOLTS/M   DEGREES     VOLTS/M   DEGREES
  -15.00      0.00   -999.99    -3.34    -3.34      0.0000     90.00 LINEAR  0.0000E+00      0.00  5.2852E-01    -56.66
  -10.00      0.00   -999.99    -4.13    -4.13      0.0000     90.00 LINEAR  0.0000E+00      0.00  4.8260E-01    -64.86
   -5.00      0.00   -999.99    -4.98    -4.98      0.0000     90.00 LINEAR  0.0000E+00      0.00  4.3748E-01    -63.36
    0.00      0.00   -999.99    -4.16    -4.16      0.0000     90.00 LINEAR  0.0000E+00      0.00  4.8119E-01    -55.08
    5.00      0.00   -999.99    -1.71    -1.71      0.0000     90.00 LINEAR  0.0000E+00      0.00  6.3756E-01    -54.28
   10.00      0.00   -999.99     0.69     0.69      0.0000     90.00 LINEAR  0.0000E+00      0.00  8.4067E-01    -63.00
   15.00      0.00   -999.99     2.45     2.45      0.0000     90.00 LINEAR  0.0000E+00      0.00  1.0296E+00    -76.39
   20.00      0.00   -999.99     3.57     3.57      0.0000    -90.00 LINEAR  0.0000E+00      0.00  1.1711E+00    -91.13
   25.00      0.00   -999.99     4.17     4.17      0.0000    -90.00 LINEAR  0.0000E+00      0.00  1.2545E+00   -105.38
   30.00      0.00   -999.99     4.38     4.38      0.0000    -90.00 LINEAR  0.0000E+00      0.00  1.2861E+00   -118.09
   35.00      0.00   -999.99     4.36     4.36      0.0000    -90.00 LINEAR  0.0000E+00      0.00  1.2831E+00   -128.63
   40.00      0.00   -999.99     4.25     4.25      0.0000    -90.00 LINEAR  0.0000E+00      0.00  1.2666E+00   -136.78
   45.00      0.00   -999.99     4.18     4.18      0.0000    -90.00 LINEAR  0.0000E+00      0.00  1.2561E+00   -142.68
   50.00      0.00   -999.99     4.24     4.24      0.0000    -90.00 LINEAR  0.0000E+00      0.00  1.2660E+00   -146.78
   55.00      0.00   -999.99     4.50     4.50      0.0000    -90.00 LINEAR  0.0000E+00      0.00  1.3040E+00   -149.81
   60.00      0.00   -999.99     4.92     4.92      0.0000    -90.00 LINEAR  0.0000E+00      0.00  1.3690E+00   -152.48
   65.00      0.00   -999.99     5.43     5.43      0.0000    -90.00 LINEAR  0.0000E+00      0.00  1.4518E+00   -155.27
   70.00      0.00   -999.99     5.93     5.93      0.0000    -90.00 LINEAR  0.0000E+00      0.00  1.5377E+00   -158.26
   75.00      0.00   -999.99     6.34     6.34      0.0000    -90.00 LINEAR  0.0000E+00      0.00  1.6118E+00   -161.25
   80.00      0.00   -999.99     6.61     6.61      0.0000    -90.00 LINEAR  0.0000E+00      0.00  1.6620E+00   -163.89
   85.00      0.00   -999.99     6.71     6.71      0.0000    -90.00 LINEAR  0.0000E+00      0.00  1.6807E+00   -165.84
   90.00      0.00   -999.99     6.62     6.62      0.0000    -90.00 LINEAR  0.0000E+00      0.00  1.6643E+00   -166.87
   95.00      0.00   -999.99     6.34     6.34      0.0000    -90.00 LINEAR  0.0000E+00      0.00  1.6121E+00   -166.84
  100.00      0.00   -999.99     5.86     5.86      0.0000    -90.00 LINEAR  0.0000E+00      0.00  1.5254E+00   -165.75
  105.00      0.00   -999.99     5.16     5.16      0.0000    -90.00 LINEAR  0.0000E+00      0.00  1.4070E+00   -163.76
  110.00      0.00   -999.99     4.22     4.22      0.0000    -90.00 LINEAR  0.0000E+00      0.00  1.2624E+00   -161.25
  115.00      0.00   -999.99     3.03     3.03      0.0000    -90.00 LINEAR  0.0000E+00      0.00  1.1013E+00   -158.90
  120.00      0.00   -999.99     1.67     1.67      0.0000    -90.00 LINEAR  0.0000E+00      0.00  9.4146E-01   -157.80
  125.00      0.00   -999.99     0.37     0.37      0.0000    -90.00 LINEAR  0.0000E+00      0.00  8.1074E-01   -159.06
  130.00      0.00   -999.99    -0.39    -0.39      0.0000    -90.00 LINEAR  0.0000E+00      0.00  7.4256E-01   -162.24
  135.00      0.00   -999.99    -0.29    -0.29      0.0000    -90.00 LINEAR  0.0000E+00      0.00  7.5096E-01   -163.58
  140.00      0.00   -999.99     0.37     0.37      0.0000    -90.00 LINEAR  0.0000E+00      0.00  8.1015E-01   -158.89
  145.00      0.00   -999.99     1.04     1.04      0.0000    -90.00 LINEAR  0.0000E+00      0.00  8.7569E-01   -147.20
  150.00      0.00   -999.99     1.41     1.41      0.0000    -90.00 LINEAR  0.0000E+00      0.00  9.1341E-01   -129.49
  155.00      0.00   -999.99     1.36     1.36      0.0000    -90.00 LINEAR  0.0000E+00      0.00  9.0781E-01   -106.81
  160.00      0.00   -999.99     0.89     0.89      0.0000     90.00 LINEAR  0.0000E+00      0.00  8.6026E-01    -79.85
  165.00      0.00   -999.99     0.08     0.08      0.0000     90.00 LINEAR  0.0000E+00      0.00  7.8379E-01    -49.16



*****  DATA CARD N0.  17 EN   0     0     0     0  0.00000E+00  0.00000E+00  0.00000E+00  0.00000E+00  0.00000E+00  0.00000E+00

  TOTAL RUN TIME: 960 msec