


                                __________________________________________
                               |                                          |
                               | NUMERICAL ELECTROMAGNETICS CODE (nec2++) |
                               | Translated to 'C++' in Double Precision  |
                               |              Version 1.0.4 [2004-11-23]              |
                               |__________________________________________|



                               ---------------- COMMENTS ----------------
                                Simpole dipole antenna in free space
                                



                                -------- STRUCTURE SPECIFICATION --------
                                COORDINATES MUST BE INPUT IN
                                METERS OR BE SCALED TO METERS
                                BEFORE STRUCTURE INPUT IS ENDED
  WIRE                                                                                 SEG FIRST  LAST  TAG
   No:        X1         Y1         Z1         X2         Y2         Z2       RADIUS   No:   SEG   SEG  No:

     1      0.0000    -0.2225     0.0000     0.0000     0.2225     0.0000     0.0037    21     1    21    1
     STRUCTURE SCALED BY FACTOR:    1.00000

     TOTAL SEGMENTS USED: 21   SEGMENTS IN A SYMMETRIC CELL: 21   SYMMETRY FLAG: 0


                               ---------- SEGMENTATION DATA ----------
                                        COORDINATES IN METERS
                            I+ AND I- INDICATE THE SEGMENTS BEFORE AND AFTER I

   SEG    COORDINATES OF SEGM CENTER     SEGM    ORIENTATION ANGLES    WIRE    CONNECTION DATA   TAG
   No:       X         Y         Z      LENGTH     ALPHA      BETA    RADIUS    I-     I    I+   NO:
     1    0.0000   -0.2119    0.0000    0.0212    0.0000   90.0000    0.0037     0     1     2     1
     2    0.0000   -0.1907    0.0000    0.0212    0.0000   90.0000    0.0037     1     2     3     1
     3    0.0000   -0.1695    0.0000    0.0212    0.0000   90.0000    0.0037     2     3     4     1
     4    0.0000   -0.1483    0.0000    0.0212    0.0000   90.0000    0.0037     3     4     5     1
     5    0.0000   -0.1271    0.0000    0.0212    0.0000   90.0000    0.0037     4     5     6     1
     6    0.0000   -0.1059    0.0000    0.0212    0.0000   90.0000    0.0037     5     6     7     1
     7    0.0000   -0.0847    0.0000    0.0212    0.0000   90.0000    0.0037     6     7     8     1
     8    0.0000   -0.0636    0.0000    0.0212    0.0000   90.0000    0.0037     7     8     9     1
     9    0.0000   -0.0424    0.0000    0.0212    0.0000   90.0000    0.0037     8     9    10     1
    10    0.0000   -0.0212    0.0000    0.0212    0.0000   90.0000    0.0037     9    10    11     1
    11    0.0000    0.0000    0.0000    0.0212    0.0000   90.0000    0.0037    10    11    12     1
    12    0.0000    0.0212    0.0000    0.0212    0.0000   90.0000    0.0037    11    12    13     1
    13    0.0000    0.0424    0.0000    0.0212    0.0000   90.0000    0.0037    12    13    14     1
    14    0.0000    0.0636    0.0000    0.0212    0.0000   90.0000    0.0037    13    14    15     1
    15    0.0000    0.0847    0.0000    0.0212    0.0000   90.0000    0.0037    14    15    16     1
    16    0.0000    0.1059    0.0000    0.0212    0.0000   90.0000    0.0037    15    16    17     1
    17    0.0000    0.1271    0.0000    0.0212    0.0000   90.0000    0.0037    16    17    18     1
    18    0.0000    0.1483    0.0000    0.0212    0.0000   90.0000    0.0037    17    18    19     1
    19    0.0000    0.1695    0.0000    0.0212    0.0000   90.0000    0.0037    18    19    20     1
    20    0.0000    0.1907    0.0000    0.0212    0.0000   90.0000    0.0037    19    20    21     1
    21    0.0000    0.2119    0.0000    0.0212    0.0000   90.0000    0.0037    20    21     0     1



*****  DATA CARD N0.   1 EX   0     1    10     0  1.00000E+00  0.00000E+00  0.00000E+00  0.00000E+00  0.00000E+00  0.00000E+00
*****  DATA CARD N0.   2 FR   0    13     0     0  2.10000E+02  1.50000E+01  0.00000E+00  0.00000E+00  0.00000E+00  0.00000E+00
*****  DATA CARD N0.   3 XQ   0     0     0     0  0.00000E+00  0.00000E+00  0.00000E+00  0.00000E+00  0.00000E+00  0.00000E+00


                               --------- FREQUENCY --------
                               FREQUENCY=  2.1000E+02 MHZ
                               WAVELENGTH= 1.4276E+00 METERS


                        APPROXIMATE INTEGRATION EMPLOYED FOR SEGMENTS
                        THAT ARE MORE THAN 1.000 WAVELENGTHS APART



                          ------ STRUCTURE IMPEDANCE LOADING ------
                                 THIS STRUCTURE IS NOT LOADED



                            -------- ANTENNA ENVIRONMENT --------

                            FREE SPACE


                             ---------- MATRIX TIMING ----------
                               FILL= 10 msec  FACTOR: 0 msec


                        --------- ANTENNA INPUT PARAMETERS ---------
  TAG   SEG       VOLTAGE (VOLTS)         CURRENT (AMPS)         IMPEDANCE (OHMS)        ADMITTANCE (MHOS)     POWER
  NO.   NO.     REAL      IMAGINARY     REAL      IMAGINARY     REAL      IMAGINARY    REAL       IMAGINARY   (WATTS)
    1    10  1.0000E+00  0.0000E+00  4.3837E-04  4.3274E-03  2.3171E+01 -2.2874E+02  4.3837E-04  4.3274E-03  2.1918E-04


                           -------- CURRENTS AND LOCATION --------
                                  DISTANCES IN WAVELENGTHS

   SEG  TAG    COORDINATES OF SEGM CENTER     SEGM    ------------- CURRENT (AMPS) -------------
   No:  No:       X         Y         Z      LENGTH     REAL      IMAGINARY    MAGN        PHASE
     1    1    0.0000   -0.1484    0.0000   0.01484  7.0629E-05  4.6945E-04  4.7474E-04   81.444
     2    1    0.0000   -0.1336    0.0000   0.01484  1.4842E-04  1.0147E-03  1.0255E-03   81.679
     3    1    0.0000   -0.1187    0.0000   0.01484  2.1096E-04  1.4864E-03  1.5013E-03   81.922
     4    1    0.0000   -0.1039    0.0000   0.01484  2.6522E-04  1.9292E-03  1.9474E-03   82.172
     5    1    0.0000   -0.0890    0.0000   0.01484  3.1197E-04  2.3487E-03  2.3693E-03   82.434
     6    1    0.0000   -0.0742    0.0000   0.01484  3.5154E-04  2.7482E-03  2.7706E-03   82.710
     7    1    0.0000   -0.0594    0.0000   0.01484  3.8401E-04  3.1313E-03  3.1547E-03   83.008
     8    1    0.0000   -0.0445    0.0000   0.01484  4.0934E-04  3.5042E-03  3.5280E-03   83.337
     9    1    0.0000   -0.0297    0.0000   0.01484  4.2747E-04  3.9012E-03  3.9246E-03   83.747
    10    1    0.0000   -0.0148    0.0000   0.01484  4.3837E-04  4.3274E-03  4.3495E-03   84.216
    11    1    0.0000    0.0000    0.0000   0.01484  4.4198E-04  3.9899E-03  4.0143E-03   83.679
    12    1    0.0000    0.0148    0.0000   0.01484  4.3830E-04  3.6814E-03  3.7074E-03   83.210
    13    1    0.0000    0.0297    0.0000   0.01484  4.2734E-04  3.3965E-03  3.4233E-03   82.829
    14    1    0.0000    0.0445    0.0000   0.01484  4.0914E-04  3.1011E-03  3.1280E-03   82.484
    15    1    0.0000    0.0594    0.0000   0.01484  3.8376E-04  2.7891E-03  2.8154E-03   82.166
    16    1    0.0000    0.0742    0.0000   0.01484  3.5126E-04  2.4580E-03  2.4830E-03   81.867
    17    1    0.0000    0.0890    0.0000   0.01484  3.1167E-04  2.1066E-03  2.1296E-03   81.584
    18    1    0.0000    0.1039    0.0000   0.01484  2.6491E-04  1.7340E-03  1.7541E-03   81.314
    19    1    0.0000    0.1187    0.0000   0.01484  2.1068E-04  1.3381E-03  1.3546E-03   81.052
    20    1    0.0000    0.1336    0.0000   0.01484  1.4820E-04  9.1466E-04  9.2659E-04   80.797
    21    1    0.0000    0.1484    0.0000   0.01484  7.0511E-05  4.2359E-04  4.2942E-04   80.549


                               ---------- POWER BUDGET ---------
                               INPUT POWER   =  2.1918E-04 Watts
                               RADIATED POWER=  2.1918E-04 Watts
                               STRUCTURE LOSS=  0.0000E+00 Watts
                               NETWORK LOSS  =  0.0000E+00 Watts
                               EFFICIENCY    =  100.00 Percent


                               --------- FREQUENCY --------
                               FREQUENCY=  2.2500E+02 MHZ
                               WAVELENGTH= 1.3324E+00 METERS


                        APPROXIMATE INTEGRATION EMPLOYED FOR SEGMENTS
                        THAT ARE MORE THAN 1.000 WAVELENGTHS APART



                          ------ STRUCTURE IMPEDANCE LOADING ------
                                 THIS STRUCTURE IS NOT LOADED



                            -------- ANTENNA ENVIRONMENT --------

                            FREE SPACE


                             ---------- MATRIX TIMING ----------
                               FILL= 10 msec  FACTOR: 0 msec


                        --------- ANTENNA INPUT PARAMETERS ---------
  TAG   SEG       VOLTAGE (VOLTS)         CURRENT (AMPS)         IMPEDANCE (OHMS)        ADMITTANCE (MHOS)     POWER
  NO.   NO.     REAL      IMAGINARY     REAL      IMAGINARY     REAL      IMAGINARY    REAL       IMAGINARY   (WATTS)
    1    10  1.0000E+00  0.0000E+00  7.5243E-04  5.1528E-03  2.7747E+01 -1.9002E+02  7.5243E-04  5.1528E-03  3.7621E-04


                           -------- CURRENTS AND LOCATION --------
                                  DISTANCES IN WAVELENGTHS

   SEG  TAG    COORDINATES OF SEGM CENTER     SEGM    ------------- CURRENT (AMPS) -------------
   No:  No:       X         Y         Z      LENGTH     REAL      IMAGINARY    MAGN        PHASE
     1    1    0.0000   -0.1590    0.0000   0.01590  1.1960E-04  5.7699E-04  5.8925E-04   78.290
     2    1    0.0000   -0.1431    0.0000   0.01590  2.5199E-04  1.2463E-03  1.2715E-03   78.569
     3    1    0.0000   -0.1272    0.0000   0.01590  3.5904E-04  1.8234E-03  1.8584E-03   78.861
     4    1    0.0000   -0.1113    0.0000   0.01590  4.5231E-04  2.3624E-03  2.4053E-03   79.161
     5    1    0.0000   -0.0954    0.0000   0.01590  5.3298E-04  2.8693E-03  2.9184E-03   79.477
     6    1    0.0000   -0.0795    0.0000   0.01590  6.0148E-04  3.3474E-03  3.4010E-03   79.813
     7    1    0.0000   -0.0636    0.0000   0.01590  6.5781E-04  3.7998E-03  3.8563E-03   80.178
     8    1    0.0000   -0.0477    0.0000   0.01590  7.0185E-04  4.2326E-03  4.2904E-03   80.585
     9    1    0.0000   -0.0318    0.0000   0.01590  7.3344E-04  4.6820E-03  4.7391E-03   81.097
    10    1    0.0000   -0.0159    0.0000   0.01590  7.5243E-04  5.1528E-03  5.2074E-03   81.692
    11    1    0.0000    0.0000    0.0000   0.01590  7.5873E-04  4.7950E-03  4.8546E-03   81.008
    12    1    0.0000    0.0159    0.0000   0.01590  7.5232E-04  4.4582E-03  4.5212E-03   80.422
    13    1    0.0000    0.0318    0.0000   0.01590  7.3322E-04  4.1370E-03  4.2015E-03   79.950
    14    1    0.0000    0.0477    0.0000   0.01590  7.0154E-04  3.7953E-03  3.8596E-03   79.527
    15    1    0.0000    0.0636    0.0000   0.01590  6.5742E-04  3.4270E-03  3.4895E-03   79.141
    16    1    0.0000    0.0795    0.0000   0.01590  6.0103E-04  3.0301E-03  3.0892E-03   78.781
    17    1    0.0000    0.0954    0.0000   0.01590  5.3251E-04  2.6039E-03  2.6578E-03   78.442
    18    1    0.0000    0.1113    0.0000   0.01590  4.5184E-04  2.1478E-03  2.1948E-03   78.120
    19    1    0.0000    0.1272    0.0000   0.01590  3.5861E-04  1.6601E-03  1.6983E-03   77.810
    20    1    0.0000    0.1431    0.0000   0.01590  2.5165E-04  1.1359E-03  1.1634E-03   77.508
    21    1    0.0000    0.1590    0.0000   0.01590  1.1941E-04  5.2633E-04  5.3971E-04   77.217


                               ---------- POWER BUDGET ---------
                               INPUT POWER   =  3.7621E-04 Watts
                               RADIATED POWER=  3.7621E-04 Watts
                               STRUCTURE LOSS=  0.0000E+00 Watts
                               NETWORK LOSS  =  0.0000E+00 Watts
                               EFFICIENCY    =  100.00 Percent


                               --------- FREQUENCY --------
                               FREQUENCY=  2.4000E+02 MHZ
                               WAVELENGTH= 1.2492E+00 METERS


                        APPROXIMATE INTEGRATION EMPLOYED FOR SEGMENTS
                        THAT ARE MORE THAN 1.000 WAVELENGTHS APART



                          ------ STRUCTURE IMPEDANCE LOADING ------
                                 THIS STRUCTURE IS NOT LOADED



                            -------- ANTENNA ENVIRONMENT --------

                            FREE SPACE


                             ---------- MATRIX TIMING ----------
                               FILL= 10 msec  FACTOR: 0 msec


                        --------- ANTENNA INPUT PARAMETERS ---------
  TAG   SEG       VOLTAGE (VOLTS)         CURRENT (AMPS)         IMPEDANCE (OHMS)        ADMITTANCE (MHOS)     POWER
  NO.   NO.     REAL      IMAGINARY     REAL      IMAGINARY     REAL      IMAGINARY    REAL       IMAGINARY   (WATTS)
    1    10  1.0000E+00  0.0000E+00  1.3348E-03  6.2128E-03  3.3055E+01 -1.5386E+02  1.3348E-03  6.2128E-03  6.6739E-04


                           -------- CURRENTS AND LOCATION --------
                                  DISTANCES IN WAVELENGTHS

   SEG  TAG    COORDINATES OF SEGM CENTER     SEGM    ------------- CURRENT (AMPS) -------------
   No:  No:       X         Y         Z      LENGTH     REAL      IMAGINARY    MAGN        PHASE
     1    1    0.0000   -0.1696    0.0000   0.01696  2.0910E-04  7.1744E-04  7.4729E-04   73.751
     2    1    0.0000   -0.1526    0.0000   0.01696  4.4186E-04  1.5490E-03  1.6108E-03   74.079
     3    1    0.0000   -0.1357    0.0000   0.01696  6.3118E-04  2.2640E-03  2.3504E-03   74.422
     4    1    0.0000   -0.1187    0.0000   0.01696  7.9690E-04  2.9287E-03  3.0352E-03   74.778
     5    1    0.0000   -0.1018    0.0000   0.01696  9.4080E-04  3.5493E-03  3.6719E-03   75.154
     6    1    0.0000   -0.0848    0.0000   0.01696  1.0634E-03  4.1289E-03  4.2636E-03   75.558
     7    1    0.0000   -0.0678    0.0000   0.01696  1.1645E-03  4.6700E-03  4.8130E-03   75.999
     8    1    0.0000   -0.0509    0.0000   0.01696  1.2437E-03  5.1781E-03  5.3253E-03   76.495
     9    1    0.0000   -0.0339    0.0000   0.01696  1.3005E-03  5.6909E-03  5.8376E-03   77.127
    10    1    0.0000   -0.0170    0.0000   0.01696  1.3348E-03  6.2128E-03  6.3546E-03   77.875
    11    1    0.0000    0.0000    0.0000   0.01696  1.3462E-03  5.8368E-03  5.9900E-03   77.013
    12    1    0.0000    0.0170    0.0000   0.01696  1.3346E-03  5.4690E-03  5.6295E-03   76.286
    13    1    0.0000    0.0339    0.0000   0.01696  1.3002E-03  5.1045E-03  5.2675E-03   75.710
    14    1    0.0000    0.0509    0.0000   0.01696  1.2432E-03  4.7050E-03  4.8665E-03   75.199
    15    1    0.0000    0.0678    0.0000   0.01696  1.1639E-03  4.2650E-03  4.4210E-03   74.736
    16    1    0.0000    0.0848    0.0000   0.01696  1.0627E-03  3.7830E-03  3.9294E-03   74.309
    17    1    0.0000    0.1018    0.0000   0.01696  9.4008E-04  3.2589E-03  3.3918E-03   73.909
    18    1    0.0000    0.1187    0.0000   0.01696  7.9618E-04  2.6932E-03  2.8085E-03   73.531
    19    1    0.0000    0.1357    0.0000   0.01696  6.3053E-04  2.0844E-03  2.1777E-03   73.170
    20    1    0.0000    0.1526    0.0000   0.01696  4.4134E-04  1.4274E-03  1.4941E-03   72.819
    21    1    0.0000    0.1696    0.0000   0.01696  2.0883E-04  6.6159E-04  6.9376E-04   72.482


                               ---------- POWER BUDGET ---------
                               INPUT POWER   =  6.6739E-04 Watts
                               RADIATED POWER=  6.6739E-04 Watts
                               STRUCTURE LOSS=  0.0000E+00 Watts
                               NETWORK LOSS  =  0.0000E+00 Watts
                               EFFICIENCY    =  100.00 Percent


                               --------- FREQUENCY --------
                               FREQUENCY=  2.5500E+02 MHZ
                               WAVELENGTH= 1.1757E+00 METERS


                        APPROXIMATE INTEGRATION EMPLOYED FOR SEGMENTS
                        THAT ARE MORE THAN 1.000 WAVELENGTHS APART



                          ------ STRUCTURE IMPEDANCE LOADING ------
                                 THIS STRUCTURE IS NOT LOADED



                            -------- ANTENNA ENVIRONMENT --------

                            FREE SPACE


                             ---------- MATRIX TIMING ----------
                               FILL= 10 msec  FACTOR: 0 msec


                        --------- ANTENNA INPUT PARAMETERS ---------
  TAG   SEG       VOLTAGE (VOLTS)         CURRENT (AMPS)         IMPEDANCE (OHMS)        ADMITTANCE (MHOS)     POWER
  NO.   NO.     REAL      IMAGINARY     REAL      IMAGINARY     REAL      IMAGINARY    REAL       IMAGINARY   (WATTS)
    1    10  1.0000E+00  0.0000E+00  2.4749E-03  7.5480E-03  3.9224E+01 -1.1963E+02  2.4749E-03  7.5480E-03  1.2374E-03


                           -------- CURRENTS AND LOCATION --------
                                  DISTANCES IN WAVELENGTHS

   SEG  TAG    COORDINATES OF SEGM CENTER     SEGM    ------------- CURRENT (AMPS) -------------
   No:  No:       X         Y         Z      LENGTH     REAL      IMAGINARY    MAGN        PHASE
     1    1    0.0000   -0.1802    0.0000   0.01802  3.8178E-04  8.9515E-04  9.7316E-04   66.902
     2    1    0.0000   -0.1622    0.0000   0.01802  8.0922E-04  1.9328E-03  2.0954E-03   67.282
     3    1    0.0000   -0.1442    0.0000   0.01802  1.1591E-03  2.8236E-03  3.0522E-03   67.681
     4    1    0.0000   -0.1261    0.0000   0.01802  1.4669E-03  3.6485E-03  3.9323E-03   68.098
     5    1    0.0000   -0.1081    0.0000   0.01802  1.7352E-03  4.4140E-03  4.7429E-03   68.540
     6    1    0.0000   -0.0901    0.0000   0.01802  1.9646E-03  5.1225E-03  5.4863E-03   69.017
     7    1    0.0000   -0.0721    0.0000   0.01802  2.1542E-03  5.7753E-03  6.1640E-03   69.544
     8    1    0.0000   -0.0541    0.0000   0.01802  2.3031E-03  6.3771E-03  6.7803E-03   70.143
     9    1    0.0000   -0.0360    0.0000   0.01802  2.4103E-03  6.9668E-03  7.3720E-03   70.916
    10    1    0.0000   -0.0180    0.0000   0.01802  2.4749E-03  7.5480E-03  7.9434E-03   71.846
    11    1    0.0000    0.0000    0.0000   0.01802  2.4964E-03  7.1561E-03  7.5790E-03   70.769
    12    1    0.0000    0.0180    0.0000   0.01802  2.4746E-03  6.7543E-03  7.1934E-03   69.878
    13    1    0.0000    0.0360    0.0000   0.01802  2.4098E-03  6.3378E-03  6.7805E-03   69.182
    14    1    0.0000    0.0541    0.0000   0.01802  2.3024E-03  5.8669E-03  6.3025E-03   68.573
    15    1    0.0000    0.0721    0.0000   0.01802  2.1533E-03  5.3365E-03  5.7545E-03   68.025
    16    1    0.0000    0.0901    0.0000   0.01802  1.9635E-03  4.7460E-03  5.1362E-03   67.524
    17    1    0.0000    0.1081    0.0000   0.01802  1.7341E-03  4.0969E-03  4.4488E-03   67.058
    18    1    0.0000    0.1261    0.0000   0.01802  1.4658E-03  3.3906E-03  3.6939E-03   66.621
    19    1    0.0000    0.1442    0.0000   0.01802  1.1581E-03  2.6264E-03  2.8704E-03   66.204
    20    1    0.0000    0.1622    0.0000   0.01802  8.0845E-04  1.7991E-03  1.9724E-03   65.802
    21    1    0.0000    0.1802    0.0000   0.01802  3.8137E-04  8.3364E-04  9.1673E-04   65.417


                               ---------- POWER BUDGET ---------
                               INPUT POWER   =  1.2374E-03 Watts
                               RADIATED POWER=  1.2374E-03 Watts
                               STRUCTURE LOSS=  0.0000E+00 Watts
                               NETWORK LOSS  =  0.0000E+00 Watts
                               EFFICIENCY    =  100.00 Percent


                               --------- FREQUENCY --------
                               FREQUENCY=  2.7000E+02 MHZ
                               WAVELENGTH= 1.1104E+00 METERS


                        APPROXIMATE INTEGRATION EMPLOYED FOR SEGMENTS
                        THAT ARE MORE THAN 1.000 WAVELENGTHS APART



                          ------ STRUCTURE IMPEDANCE LOADING ------
                                 THIS STRUCTURE IS NOT LOADED



                            -------- ANTENNA ENVIRONMENT --------

                            FREE SPACE


                             ---------- MATRIX TIMING ----------
                               FILL= 10 msec  FACTOR: 0 msec


                        --------- ANTENNA INPUT PARAMETERS ---------
  TAG   SEG       VOLTAGE (VOLTS)         CURRENT (AMPS)         IMPEDANCE (OHMS)        ADMITTANCE (MHOS)     POWER
  NO.   NO.     REAL      IMAGINARY     REAL      IMAGINARY     REAL      IMAGINARY    REAL       IMAGINARY   (WATTS)
    1    10  1.0000E+00  0.0000E+00  4.7883E-03  8.9576E-03  4.6413E+01 -8.6826E+01  4.7883E-03  8.9576E-03  2.3942E-03


                           -------- CURRENTS AND LOCATION --------
                                  DISTANCES IN WAVELENGTHS

   SEG  TAG    COORDINATES OF SEGM CENTER     SEGM    ------------- CURRENT (AMPS) -------------
   No:  No:       X         Y         Z      LENGTH     REAL      IMAGINARY    MAGN        PHASE
     1    1    0.0000   -0.1908    0.0000   0.01908  7.2670E-04  1.0774E-03  1.2996E-03   56.000
     2    1    0.0000   -0.1717    0.0000   0.01908  1.5454E-03  2.3291E-03  2.7951E-03   56.436
     3    1    0.0000   -0.1526    0.0000   0.01908  2.2199E-03  3.4047E-03  4.0644E-03   56.895
     4    1    0.0000   -0.1336    0.0000   0.01908  2.8163E-03  4.3996E-03  5.2238E-03   57.376
     5    1    0.0000   -0.1145    0.0000   0.01908  3.3385E-03  5.3201E-03  6.2808E-03   57.890
     6    1    0.0000   -0.0954    0.0000   0.01908  3.7865E-03  6.1668E-03  7.2366E-03   58.450
     7    1    0.0000   -0.0763    0.0000   0.01908  4.1580E-03  6.9399E-03  8.0902E-03   59.072
     8    1    0.0000   -0.0572    0.0000   0.01908  4.4504E-03  7.6424E-03  8.8438E-03   59.787
     9    1    0.0000   -0.0382    0.0000   0.01908  4.6611E-03  8.3142E-03  9.5316E-03   60.724
    10    1    0.0000   -0.0191    0.0000   0.01908  4.7883E-03  8.9576E-03  1.0157E-02   61.873
    11    1    0.0000    0.0000    0.0000   0.01908  4.8307E-03  8.5507E-03  9.8209E-03   60.536
    12    1    0.0000    0.0191    0.0000   0.01908  4.7879E-03  8.1133E-03  9.4208E-03   59.454
    13    1    0.0000    0.0382    0.0000   0.01908  4.6604E-03  7.6412E-03  8.9503E-03   58.621
    14    1    0.0000    0.0572    0.0000   0.01908  4.4494E-03  7.0931E-03  8.3731E-03   57.901
    15    1    0.0000    0.0763    0.0000   0.01908  4.1567E-03  6.4650E-03  7.6860E-03   57.261
    16    1    0.0000    0.0954    0.0000   0.01908  3.7850E-03  5.7577E-03  6.8904E-03   56.679
    17    1    0.0000    0.1145    0.0000   0.01908  3.3370E-03  4.9741E-03  5.9897E-03   56.144
    18    1    0.0000    0.1336    0.0000   0.01908  2.8147E-03  4.1174E-03  4.9876E-03   55.643
    19    1    0.0000    0.1526    0.0000   0.01908  2.2185E-03  3.1883E-03  3.8842E-03   55.169
    20    1    0.0000    0.1717    0.0000   0.01908  1.5442E-03  2.1821E-03  2.6732E-03   54.713
    21    1    0.0000    0.1908    0.0000   0.01908  7.2610E-04  1.0097E-03  1.2437E-03   54.279


                               ---------- POWER BUDGET ---------
                               INPUT POWER   =  2.3942E-03 Watts
                               RADIATED POWER=  2.3942E-03 Watts
                               STRUCTURE LOSS=  0.0000E+00 Watts
                               NETWORK LOSS  =  0.0000E+00 Watts
                               EFFICIENCY    =  100.00 Percent


                               --------- FREQUENCY --------
                               FREQUENCY=  2.8500E+02 MHZ
                               WAVELENGTH= 1.0519E+00 METERS


                        APPROXIMATE INTEGRATION EMPLOYED FOR SEGMENTS
                        THAT ARE MORE THAN 1.000 WAVELENGTHS APART



                          ------ STRUCTURE IMPEDANCE LOADING ------
                                 THIS STRUCTURE IS NOT LOADED



                            -------- ANTENNA ENVIRONMENT --------

                            FREE SPACE


                             ---------- MATRIX TIMING ----------
                               FILL= 20 msec  FACTOR: 0 msec


                        --------- ANTENNA INPUT PARAMETERS ---------
  TAG   SEG       VOLTAGE (VOLTS)         CURRENT (AMPS)         IMPEDANCE (OHMS)        ADMITTANCE (MHOS)     POWER
  NO.   NO.     REAL      IMAGINARY     REAL      IMAGINARY     REAL      IMAGINARY    REAL       IMAGINARY   (WATTS)
    1    10  1.0000E+00  0.0000E+00  9.0827E-03  9.1204E-03  5.4822E+01 -5.5049E+01  9.0827E-03  9.1204E-03  4.5414E-03


                           -------- CURRENTS AND LOCATION --------
                                  DISTANCES IN WAVELENGTHS

   SEG  TAG    COORDINATES OF SEGM CENTER     SEGM    ------------- CURRENT (AMPS) -------------
   No:  No:       X         Y         Z      LENGTH     REAL      IMAGINARY    MAGN        PHASE
     1    1    0.0000   -0.2014    0.0000   0.02014  1.3550E-03  1.0662E-03  1.7242E-03   38.199
     2    1    0.0000   -0.1813    0.0000   0.02014  2.8913E-03  2.3157E-03  3.7044E-03   38.692
     3    1    0.0000   -0.1611    0.0000   0.02014  4.1661E-03  3.3996E-03  5.3772E-03   39.214
     4    1    0.0000   -0.1410    0.0000   0.02014  5.2992E-03  4.4096E-03  6.8940E-03   39.765
     5    1    0.0000   -0.1208    0.0000   0.02014  6.2959E-03  5.3500E-03  8.2620E-03   40.357
     6    1    0.0000   -0.1007    0.0000   0.02014  7.1539E-03  6.2201E-03  9.4799E-03   41.006
     7    1    0.0000   -0.0806    0.0000   0.02014  7.8676E-03  7.0183E-03  1.0543E-02   41.734
     8    1    0.0000   -0.0604    0.0000   0.02014  8.4306E-03  7.7470E-03  1.1450E-02   42.580
     9    1    0.0000   -0.0403    0.0000   0.02014  8.8371E-03  8.4471E-03  1.2225E-02   43.708
    10    1    0.0000   -0.0201    0.0000   0.02014  9.0827E-03  9.1204E-03  1.2872E-02   45.118
    11    1    0.0000    0.0000    0.0000   0.02014  9.1647E-03  8.6872E-03  1.2628E-02   43.468
    12    1    0.0000    0.0201    0.0000   0.02014  9.0822E-03  8.2246E-03  1.2253E-02   42.163
    13    1    0.0000    0.0403    0.0000   0.02014  8.8361E-03  7.7287E-03  1.1739E-02   41.175
    14    1    0.0000    0.0604    0.0000   0.02014  8.4291E-03  7.1567E-03  1.1057E-02   40.333
    15    1    0.0000    0.0806    0.0000   0.02014  7.8658E-03  6.5052E-03  1.0207E-02   39.591
    16    1    0.0000    0.1007    0.0000   0.02014  7.1518E-03  5.7758E-03  9.1928E-03   38.924
    17    1    0.0000    0.1208    0.0000   0.02014  6.2936E-03  4.9729E-03  8.0211E-03   38.314
    18    1    0.0000    0.1410    0.0000   0.02014  5.2970E-03  4.1009E-03  6.6989E-03   37.747
    19    1    0.0000    0.1611    0.0000   0.02014  4.1641E-03  3.1623E-03  5.2288E-03   37.214
    20    1    0.0000    0.1813    0.0000   0.02014  2.8897E-03  2.1542E-03  3.6043E-03   36.703
    21    1    0.0000    0.2014    0.0000   0.02014  1.3541E-03  9.9172E-04  1.6784E-03   36.218


                               ---------- POWER BUDGET ---------
                               INPUT POWER   =  4.5414E-03 Watts
                               RADIATED POWER=  4.5414E-03 Watts
                               STRUCTURE LOSS=  0.0000E+00 Watts
                               NETWORK LOSS  =  0.0000E+00 Watts
                               EFFICIENCY    =  100.00 Percent


                               --------- FREQUENCY --------
                               FREQUENCY=  3.0000E+02 MHZ
                               WAVELENGTH= 9.9933E-01 METERS


                        APPROXIMATE INTEGRATION EMPLOYED FOR SEGMENTS
                        THAT ARE MORE THAN 1.000 WAVELENGTHS APART



                          ------ STRUCTURE IMPEDANCE LOADING ------
                                 THIS STRUCTURE IS NOT LOADED



                            -------- ANTENNA ENVIRONMENT --------

                            FREE SPACE


                             ---------- MATRIX TIMING ----------
                               FILL= 10 msec  FACTOR: 0 msec


                        --------- ANTENNA INPUT PARAMETERS ---------
  TAG   SEG       VOLTAGE (VOLTS)         CURRENT (AMPS)         IMPEDANCE (OHMS)        ADMITTANCE (MHOS)     POWER
  NO.   NO.     REAL      IMAGINARY     REAL      IMAGINARY     REAL      IMAGINARY    REAL       IMAGINARY   (WATTS)
    1    10  1.0000E+00  0.0000E+00  1.3593E-02  5.0331E-03  6.4696E+01 -2.3954E+01  1.3593E-02  5.0331E-03  6.7967E-03


                           -------- CURRENTS AND LOCATION --------
                                  DISTANCES IN WAVELENGTHS

   SEG  TAG    COORDINATES OF SEGM CENTER     SEGM    ------------- CURRENT (AMPS) -------------
   No:  No:       X         Y         Z      LENGTH     REAL      IMAGINARY    MAGN        PHASE
     1    1    0.0000   -0.2120    0.0000   0.02120  1.9917E-03  4.3138E-04  2.0379E-03   12.221
     2    1    0.0000   -0.1908    0.0000   0.02120  4.2656E-03  9.6708E-04  4.3738E-03   12.774
     3    1    0.0000   -0.1696    0.0000   0.02120  6.1660E-03  1.4647E-03  6.3376E-03   13.363
     4    1    0.0000   -0.1484    0.0000   0.02120  7.8645E-03  1.9589E-03  8.1048E-03   13.986
     5    1    0.0000   -0.1272    0.0000   0.02120  9.3654E-03  2.4503E-03  9.6807E-03   14.662
     6    1    0.0000   -0.1060    0.0000   0.02120  1.0662E-02  2.9385E-03  1.1060E-02   15.408
     7    1    0.0000   -0.0848    0.0000   0.02120  1.1745E-02  3.4241E-03  1.2234E-02   16.254
     8    1    0.0000   -0.0636    0.0000   0.02120  1.2600E-02  3.9120E-03  1.3193E-02   17.248
     9    1    0.0000   -0.0424    0.0000   0.02120  1.3219E-02  4.4472E-03  1.3947E-02   18.594
    10    1    0.0000   -0.0212    0.0000   0.02120  1.3593E-02  5.0331E-03  1.4495E-02   20.318
    11    1    0.0000    0.0000    0.0000   0.02120  1.3719E-02  4.5341E-03  1.4448E-02   18.289
    12    1    0.0000    0.0212    0.0000   0.02120  1.3593E-02  4.0849E-03  1.4193E-02   16.727
    13    1    0.0000    0.0424    0.0000   0.02120  1.3218E-02  3.6815E-03  1.3721E-02   15.564
    14    1    0.0000    0.0636    0.0000   0.02120  1.2598E-02  3.2783E-03  1.3018E-02   14.586
    15    1    0.0000    0.0848    0.0000   0.02120  1.1742E-02  2.8700E-03  1.2088E-02   13.735
    16    1    0.0000    0.1060    0.0000   0.02120  1.0659E-02  2.4564E-03  1.0939E-02   12.977
    17    1    0.0000    0.1272    0.0000   0.02120  9.3622E-03  2.0392E-03  9.5817E-03   12.288
    18    1    0.0000    0.1484    0.0000   0.02120  7.8613E-03  1.6212E-03  8.0268E-03   11.653
    19    1    0.0000    0.1696    0.0000   0.02120  6.1631E-03  1.2045E-03  6.2797E-03   11.058
    20    1    0.0000    0.1908    0.0000   0.02120  4.2633E-03  7.8951E-04  4.3358E-03   10.492
    21    1    0.0000    0.2120    0.0000   0.02120  1.9905E-03  3.4938E-04  2.0209E-03    9.955


                               ---------- POWER BUDGET ---------
                               INPUT POWER   =  6.7967E-03 Watts
                               RADIATED POWER=  6.7967E-03 Watts
                               STRUCTURE LOSS=  0.0000E+00 Watts
                               NETWORK LOSS  =  0.0000E+00 Watts
                               EFFICIENCY    =  100.00 Percent


                               --------- FREQUENCY --------
                               FREQUENCY=  3.1500E+02 MHZ
                               WAVELENGTH= 9.5175E-01 METERS


                        APPROXIMATE INTEGRATION EMPLOYED FOR SEGMENTS
                        THAT ARE MORE THAN 1.000 WAVELENGTHS APART



                          ------ STRUCTURE IMPEDANCE LOADING ------
                                 THIS STRUCTURE IS NOT LOADED



                            -------- ANTENNA ENVIRONMENT --------

                            FREE SPACE


                             ---------- MATRIX TIMING ----------
                               FILL= 10 msec  FACTOR: 0 msec


                        --------- ANTENNA INPUT PARAMETERS ---------
  TAG   SEG       VOLTAGE (VOLTS)         CURRENT (AMPS)         IMPEDANCE (OHMS)        ADMITTANCE (MHOS)     POWER
  NO.   NO.     REAL      IMAGINARY     REAL      IMAGINARY     REAL      IMAGINARY    REAL       IMAGINARY   (WATTS)
    1    10  1.0000E+00  0.0000E+00  1.2998E-02 -1.1466E-03  7.6344E+01  6.7348E+00  1.2998E-02 -1.1466E-03  6.4988E-03


                           -------- CURRENTS AND LOCATION --------
                                  DISTANCES IN WAVELENGTHS

   SEG  TAG    COORDINATES OF SEGM CENTER     SEGM    ------------- CURRENT (AMPS) -------------
   No:  No:       X         Y         Z      LENGTH     REAL      IMAGINARY    MAGN        PHASE
     1    1    0.0000   -0.2226    0.0000   0.02226  1.8690E-03 -4.8201E-04  1.9302E-03  -14.461
     2    1    0.0000   -0.2003    0.0000   0.02226  4.0182E-03 -9.9034E-04  4.1384E-03  -13.845
     3    1    0.0000   -0.1781    0.0000   0.02226  5.8279E-03 -1.3656E-03  5.9858E-03  -13.187
     4    1    0.0000   -0.1558    0.0000   0.02226  7.4546E-03 -1.6508E-03  7.6352E-03  -12.487
     5    1    0.0000   -0.1336    0.0000   0.02226  8.8988E-03 -1.8465E-03  9.0884E-03  -11.722
     6    1    0.0000   -0.1113    0.0000   0.02226  1.0152E-02 -1.9496E-03  1.0337E-02  -10.871
     7    1    0.0000   -0.0890    0.0000   0.02226  1.1200E-02 -1.9540E-03  1.1369E-02   -9.896
     8    1    0.0000   -0.0668    0.0000   0.02226  1.2031E-02 -1.8488E-03  1.2172E-02   -8.736
     9    1    0.0000   -0.0445    0.0000   0.02226  1.2633E-02 -1.5819E-03  1.2732E-02   -7.138
    10    1    0.0000   -0.0223    0.0000   0.02226  1.2998E-02 -1.1466E-03  1.3048E-02   -5.041
    11    1    0.0000    0.0000    0.0000   0.02226  1.3119E-02 -1.7330E-03  1.3233E-02   -7.525
    12    1    0.0000    0.0223    0.0000   0.02226  1.2996E-02 -2.1484E-03  1.3173E-02   -9.386
    13    1    0.0000    0.0445    0.0000   0.02226  1.2631E-02 -2.3969E-03  1.2856E-02  -10.745
    14    1    0.0000    0.0668    0.0000   0.02226  1.2028E-02 -2.5284E-03  1.2291E-02  -11.872
    15    1    0.0000    0.0890    0.0000   0.02226  1.1196E-02 -2.5521E-03  1.1483E-02  -12.841
    16    1    0.0000    0.1113    0.0000   0.02226  1.0147E-02 -2.4729E-03  1.0444E-02  -13.696
    17    1    0.0000    0.1336    0.0000   0.02226  8.8942E-03 -2.2947E-03  9.1855E-03  -14.467
    18    1    0.0000    0.1558    0.0000   0.02226  7.4501E-03 -2.0203E-03  7.7192E-03  -15.172
    19    1    0.0000    0.1781    0.0000   0.02226  5.8239E-03 -1.6512E-03  6.0534E-03  -15.829
    20    1    0.0000    0.2003    0.0000   0.02226  4.0150E-03 -1.1857E-03  4.1864E-03  -16.452
    21    1    0.0000    0.2226    0.0000   0.02226  1.8674E-03 -5.7234E-04  1.9531E-03  -17.040


                               ---------- POWER BUDGET ---------
                               INPUT POWER   =  6.4988E-03 Watts
                               RADIATED POWER=  6.4988E-03 Watts
                               STRUCTURE LOSS=  0.0000E+00 Watts
                               NETWORK LOSS  =  0.0000E+00 Watts
                               EFFICIENCY    =  100.00 Percent


                               --------- FREQUENCY --------
                               FREQUENCY=  3.3000E+02 MHZ
                               WAVELENGTH= 9.0848E-01 METERS


                        APPROXIMATE INTEGRATION EMPLOYED FOR SEGMENTS
                        THAT ARE MORE THAN 1.000 WAVELENGTHS APART



                          ------ STRUCTURE IMPEDANCE LOADING ------
                                 THIS STRUCTURE IS NOT LOADED



                            -------- ANTENNA ENVIRONMENT --------

                            FREE SPACE


                             ---------- MATRIX TIMING ----------
                               FILL= 0 msec  FACTOR: 0 msec


                        --------- ANTENNA INPUT PARAMETERS ---------
  TAG   SEG       VOLTAGE (VOLTS)         CURRENT (AMPS)         IMPEDANCE (OHMS)        ADMITTANCE (MHOS)     POWER
  NO.   NO.     REAL      IMAGINARY     REAL      IMAGINARY     REAL      IMAGINARY    REAL       IMAGINARY   (WATTS)
    1    10  1.0000E+00  0.0000E+00  9.4758E-03 -3.9136E-03  9.0154E+01  3.7234E+01  9.4758E-03 -3.9136E-03  4.7379E-03


                           -------- CURRENTS AND LOCATION --------
                                  DISTANCES IN WAVELENGTHS

   SEG  TAG    COORDINATES OF SEGM CENTER     SEGM    ------------- CURRENT (AMPS) -------------
   No:  No:       X         Y         Z      LENGTH     REAL      IMAGINARY    MAGN        PHASE
     1    1    0.0000   -0.2332    0.0000   0.02332  1.3365E-03 -8.7943E-04  1.5999E-03  -33.346
     2    1    0.0000   -0.2099    0.0000   0.02332  2.8847E-03 -1.8496E-03  3.4267E-03  -32.667
     3    1    0.0000   -0.1866    0.0000   0.02332  4.1985E-03 -2.6172E-03  4.9474E-03  -31.937
     4    1    0.0000   -0.1632    0.0000   0.02332  5.3864E-03 -3.2564E-03  6.2943E-03  -31.156
     5    1    0.0000   -0.1399    0.0000   0.02332  6.4461E-03 -3.7664E-03  7.4657E-03  -30.297
     6    1    0.0000   -0.1166    0.0000   0.02332  7.3689E-03 -4.1408E-03  8.4526E-03  -29.333
     7    1    0.0000   -0.0933    0.0000   0.02332  8.1435E-03 -4.3696E-03  9.2417E-03  -28.217
     8    1    0.0000   -0.0700    0.0000   0.02332  8.7587E-03 -4.4382E-03  9.8190E-03  -26.872
     9    1    0.0000   -0.0466    0.0000   0.02332  9.2052E-03 -4.2891E-03  1.0155E-02  -24.983
    10    1    0.0000   -0.0233    0.0000   0.02332  9.4758E-03 -3.9136E-03  1.0252E-02  -22.441
    11    1    0.0000    0.0000    0.0000   0.02332  9.5659E-03 -4.5575E-03  1.0596E-02  -25.475
    12    1    0.0000    0.0233    0.0000   0.02332  9.4742E-03 -4.9701E-03  1.0699E-02  -27.681
    13    1    0.0000    0.0466    0.0000   0.02332  9.2023E-03 -5.1555E-03  1.0548E-02  -29.260
    14    1    0.0000    0.0700    0.0000   0.02332  8.7545E-03 -5.1668E-03  1.0165E-02  -30.549
    15    1    0.0000    0.0933    0.0000   0.02332  8.1382E-03 -5.0153E-03  9.5594E-03  -31.644
    16    1    0.0000    0.1166    0.0000   0.02332  7.3628E-03 -4.7090E-03  8.7399E-03  -32.602
    17    1    0.0000    0.1399    0.0000   0.02332  6.4397E-03 -4.2554E-03  7.7186E-03  -33.457
    18    1    0.0000    0.1632    0.0000   0.02332  5.3801E-03 -3.6611E-03  6.5076E-03  -34.235
    19    1    0.0000    0.1866    0.0000   0.02332  4.1929E-03 -2.9309E-03  5.1157E-03  -34.955
    20    1    0.0000    0.2099    0.0000   0.02332  2.8802E-03 -2.0647E-03  3.5438E-03  -35.635
    21    1    0.0000    0.2332    0.0000   0.02332  1.3341E-03 -9.7907E-04  1.6548E-03  -36.274


                               ---------- POWER BUDGET ---------
                               INPUT POWER   =  4.7379E-03 Watts
                               RADIATED POWER=  4.7379E-03 Watts
                               STRUCTURE LOSS=  0.0000E+00 Watts
                               NETWORK LOSS  =  0.0000E+00 Watts
                               EFFICIENCY    =  100.00 Percent


                               --------- FREQUENCY --------
                               FREQUENCY=  3.4500E+02 MHZ
                               WAVELENGTH= 8.6899E-01 METERS


                        APPROXIMATE INTEGRATION EMPLOYED FOR SEGMENTS
                        THAT ARE MORE THAN 1.000 WAVELENGTHS APART



                          ------ STRUCTURE IMPEDANCE LOADING ------
                                 THIS STRUCTURE IS NOT LOADED



                            -------- ANTENNA ENVIRONMENT --------

                            FREE SPACE


                             ---------- MATRIX TIMING ----------
                               FILL= 10 msec  FACTOR: 0 msec


                        --------- ANTENNA INPUT PARAMETERS ---------
  TAG   SEG       VOLTAGE (VOLTS)         CURRENT (AMPS)         IMPEDANCE (OHMS)        ADMITTANCE (MHOS)     POWER
  NO.   NO.     REAL      IMAGINARY     REAL      IMAGINARY     REAL      IMAGINARY    REAL       IMAGINARY   (WATTS)
    1    10  1.0000E+00  0.0000E+00  6.6847E-03 -4.2440E-03  1.0662E+02  6.7691E+01  6.6847E-03 -4.2440E-03  3.3424E-03


                           -------- CURRENTS AND LOCATION --------
                                  DISTANCES IN WAVELENGTHS

   SEG  TAG    COORDINATES OF SEGM CENTER     SEGM    ------------- CURRENT (AMPS) -------------
   No:  No:       X         Y         Z      LENGTH     REAL      IMAGINARY    MAGN        PHASE
     1    1    0.0000   -0.2438    0.0000   0.02438  9.2425E-04 -9.2381E-04  1.3068E-03  -44.987
     2    1    0.0000   -0.2194    0.0000   0.02438  2.0032E-03 -1.9509E-03  2.7962E-03  -44.242
     3    1    0.0000   -0.1950    0.0000   0.02438  2.9262E-03 -2.7709E-03  4.0299E-03  -43.439
     4    1    0.0000   -0.1707    0.0000   0.02438  3.7655E-03 -3.4593E-03  5.1133E-03  -42.573
     5    1    0.0000   -0.1463    0.0000   0.02438  4.5179E-03 -4.0134E-03  6.0431E-03  -41.615
     6    1    0.0000   -0.1219    0.0000   0.02438  5.1757E-03 -4.4252E-03  6.8096E-03  -40.530
     7    1    0.0000   -0.0975    0.0000   0.02438  5.7295E-03 -4.6829E-03  7.3998E-03  -39.260
     8    1    0.0000   -0.0731    0.0000   0.02438  6.1703E-03 -4.7704E-03  7.7993E-03  -37.708
     9    1    0.0000   -0.0488    0.0000   0.02438  6.4906E-03 -4.6272E-03  7.9711E-03  -35.485
    10    1    0.0000   -0.0244    0.0000   0.02438  6.6847E-03 -4.2440E-03  7.9181E-03  -32.411
    11    1    0.0000    0.0000    0.0000   0.02438  6.7491E-03 -4.9234E-03  8.3540E-03  -36.110
    12    1    0.0000    0.0244    0.0000   0.02438  6.6826E-03 -5.3568E-03  8.5646E-03  -38.716
    13    1    0.0000    0.0488    0.0000   0.02438  6.4865E-03 -5.5478E-03  8.5354E-03  -40.540
    14    1    0.0000    0.0731    0.0000   0.02438  6.1644E-03 -5.5516E-03  8.2958E-03  -42.006
    15    1    0.0000    0.0975    0.0000   0.02438  5.7221E-03 -5.3802E-03  7.8542E-03  -43.236
    16    1    0.0000    0.1219    0.0000   0.02438  5.1673E-03 -5.0426E-03  7.2201E-03  -44.300
    17    1    0.0000    0.1463    0.0000   0.02438  4.5091E-03 -4.5475E-03  6.4040E-03  -45.243
    18    1    0.0000    0.1707    0.0000   0.02438  3.7568E-03 -3.9031E-03  5.4174E-03  -46.094
    19    1    0.0000    0.1950    0.0000   0.02438  2.9183E-03 -3.1161E-03  4.2693E-03  -46.878
    20    1    0.0000    0.2194    0.0000   0.02438  1.9971E-03 -2.1881E-03  2.9625E-03  -47.614
    21    1    0.0000    0.2438    0.0000   0.02438  9.2105E-04 -1.0339E-03  1.3846E-03  -48.303


                               ---------- POWER BUDGET ---------
                               INPUT POWER   =  3.3424E-03 Watts
                               RADIATED POWER=  3.3424E-03 Watts
                               STRUCTURE LOSS=  0.0000E+00 Watts
                               NETWORK LOSS  =  0.0000E+00 Watts
                               EFFICIENCY    =  100.00 Percent


                               --------- FREQUENCY --------
                               FREQUENCY=  3.6000E+02 MHZ
                               WAVELENGTH= 8.3278E-01 METERS


                        APPROXIMATE INTEGRATION EMPLOYED FOR SEGMENTS
                        THAT ARE MORE THAN 1.000 WAVELENGTHS APART



                          ------ STRUCTURE IMPEDANCE LOADING ------
                                 THIS STRUCTURE IS NOT LOADED



                            -------- ANTENNA ENVIRONMENT --------

                            FREE SPACE


                             ---------- MATRIX TIMING ----------
                               FILL= 10 msec  FACTOR: 0 msec


                        --------- ANTENNA INPUT PARAMETERS ---------
  TAG   SEG       VOLTAGE (VOLTS)         CURRENT (AMPS)         IMPEDANCE (OHMS)        ADMITTANCE (MHOS)     POWER
  NO.   NO.     REAL      IMAGINARY     REAL      IMAGINARY     REAL      IMAGINARY    REAL       IMAGINARY   (WATTS)
    1    10  1.0000E+00  0.0000E+00  4.9356E-03 -3.8339E-03  1.2636E+02  9.8156E+01  4.9356E-03 -3.8339E-03  2.4678E-03


                           -------- CURRENTS AND LOCATION --------
                                  DISTANCES IN WAVELENGTHS

   SEG  TAG    COORDINATES OF SEGM CENTER     SEGM    ------------- CURRENT (AMPS) -------------
   No:  No:       X         Y         Z      LENGTH     REAL      IMAGINARY    MAGN        PHASE
     1    1    0.0000   -0.2544    0.0000   0.02544  6.6878E-04 -8.6522E-04  1.0936E-03  -52.297
     2    1    0.0000   -0.2290    0.0000   0.02544  1.4557E-03 -1.8292E-03  2.3377E-03  -51.487
     3    1    0.0000   -0.2035    0.0000   0.02544  2.1343E-03 -2.5991E-03  3.3631E-03  -50.608
     4    1    0.0000   -0.1781    0.0000   0.02544  2.7551E-03 -3.2436E-03  4.2558E-03  -49.655
     5    1    0.0000   -0.1526    0.0000   0.02544  3.3143E-03 -3.7584E-03  5.0111E-03  -48.593
     6    1    0.0000   -0.1272    0.0000   0.02544  3.8050E-03 -4.1348E-03  5.6192E-03  -47.378
     7    1    0.0000   -0.1018    0.0000   0.02544  4.2193E-03 -4.3603E-03  6.0676E-03  -45.941
     8    1    0.0000   -0.0763    0.0000   0.02544  4.5498E-03 -4.4182E-03  6.3420E-03  -44.159
     9    1    0.0000   -0.0509    0.0000   0.02544  4.7901E-03 -4.2457E-03  6.4009E-03  -41.552
    10    1    0.0000   -0.0254    0.0000   0.02544  4.9356E-03 -3.8339E-03  6.2497E-03  -37.839
    11    1    0.0000    0.0000    0.0000   0.02544  4.9834E-03 -4.5423E-03  6.7429E-03  -42.348
    12    1    0.0000    0.0254    0.0000   0.02544  4.9327E-03 -5.0046E-03  7.0269E-03  -45.415
    13    1    0.0000    0.0509    0.0000   0.02544  4.7844E-03 -5.2236E-03  7.0835E-03  -47.513
    14    1    0.0000    0.0763    0.0000   0.02544  4.5416E-03 -5.2561E-03  6.9464E-03  -49.171
    15    1    0.0000    0.1018    0.0000   0.02544  4.2091E-03 -5.1141E-03  6.6235E-03  -50.544
    16    1    0.0000    0.1272    0.0000   0.02544  3.7934E-03 -4.8066E-03  6.1232E-03  -51.719
    17    1    0.0000    0.1526    0.0000   0.02544  3.3021E-03 -4.3427E-03  5.4555E-03  -52.751
    18    1    0.0000    0.1781    0.0000   0.02544  2.7431E-03 -3.7312E-03  4.6310E-03  -53.677
    19    1    0.0000    0.2035    0.0000   0.02544  2.1235E-03 -2.9796E-03  3.6589E-03  -54.523
    20    1    0.0000    0.2290    0.0000   0.02544  1.4473E-03 -2.0913E-03  2.5433E-03  -55.315
    21    1    0.0000    0.2544    0.0000   0.02544  6.6440E-04 -9.8703E-04  1.1898E-03  -56.054


                               ---------- POWER BUDGET ---------
                               INPUT POWER   =  2.4678E-03 Watts
                               RADIATED POWER=  2.4678E-03 Watts
                               STRUCTURE LOSS=  0.0000E+00 Watts
                               NETWORK LOSS  =  0.0000E+00 Watts
                               EFFICIENCY    =  100.00 Percent


                               --------- FREQUENCY --------
                               FREQUENCY=  3.7500E+02 MHZ
                               WAVELENGTH= 7.9947E-01 METERS


                        APPROXIMATE INTEGRATION EMPLOYED FOR SEGMENTS
                        THAT ARE MORE THAN 1.000 WAVELENGTHS APART



                          ------ STRUCTURE IMPEDANCE LOADING ------
                                 THIS STRUCTURE IS NOT LOADED



                            -------- ANTENNA ENVIRONMENT --------

                            FREE SPACE


                             ---------- MATRIX TIMING ----------
                               FILL= 10 msec  FACTOR: 0 msec


                        --------- ANTENNA INPUT PARAMETERS ---------
  TAG   SEG       VOLTAGE (VOLTS)         CURRENT (AMPS)         IMPEDANCE (OHMS)        ADMITTANCE (MHOS)     POWER
  NO.   NO.     REAL      IMAGINARY     REAL      IMAGINARY     REAL      IMAGINARY    REAL       IMAGINARY   (WATTS)
    1    10  1.0000E+00  0.0000E+00  3.8431E-03 -3.2896E-03  1.5018E+02  1.2855E+02  3.8431E-03 -3.2896E-03  1.9216E-03


                           -------- CURRENTS AND LOCATION --------
                                  DISTANCES IN WAVELENGTHS

   SEG  TAG    COORDINATES OF SEGM CENTER     SEGM    ------------- CURRENT (AMPS) -------------
   No:  No:       X         Y         Z      LENGTH     REAL      IMAGINARY    MAGN        PHASE
     1    1    0.0000   -0.2650    0.0000   0.02650  5.1034E-04 -7.9028E-04  9.4074E-04  -57.147
     2    1    0.0000   -0.2385    0.0000   0.02650  1.1157E-03 -1.6710E-03  2.0092E-03  -56.270
     3    1    0.0000   -0.2120    0.0000   0.02650  1.6420E-03 -2.3725E-03  2.8853E-03  -55.314
     4    1    0.0000   -0.1855    0.0000   0.02650  2.1263E-03 -2.9559E-03  3.6412E-03  -54.271
     5    1    0.0000   -0.1590    0.0000   0.02650  2.5646E-03 -3.4157E-03  4.2713E-03  -53.100
     6    1    0.0000   -0.1325    0.0000   0.02650  2.9506E-03 -3.7425E-03  4.7658E-03  -51.748
     7    1    0.0000   -0.1060    0.0000   0.02650  3.2774E-03 -3.9237E-03  5.1124E-03  -50.129
     8    1    0.0000   -0.0795    0.0000   0.02650  3.5384E-03 -3.9424E-03  5.2975E-03  -48.091
     9    1    0.0000   -0.0530    0.0000   0.02650  3.7284E-03 -3.7339E-03  5.2766E-03  -45.042
    10    1    0.0000   -0.0265    0.0000   0.02650  3.8431E-03 -3.2896E-03  5.0587E-03  -40.562
    11    1    0.0000    0.0000    0.0000   0.02650  3.8802E-03 -4.0264E-03  5.5918E-03  -46.059
    12    1    0.0000    0.0265    0.0000   0.02650  3.8390E-03 -4.5202E-03  5.9304E-03  -49.658
    13    1    0.0000    0.0530    0.0000   0.02650  3.7204E-03 -4.7725E-03  6.0513E-03  -52.062
    14    1    0.0000    0.0795    0.0000   0.02650  3.5271E-03 -4.8418E-03  5.9903E-03  -53.928
    15    1    0.0000    0.1060    0.0000   0.02650  3.2633E-03 -4.7396E-03  5.7544E-03  -55.452
    16    1    0.0000    0.1325    0.0000   0.02650  2.9346E-03 -4.4747E-03  5.3512E-03  -56.742
    17    1    0.0000    0.1590    0.0000   0.02650  2.5478E-03 -4.0560E-03  4.7898E-03  -57.865
    18    1    0.0000    0.1855    0.0000   0.02650  2.1098E-03 -3.4927E-03  4.0805E-03  -58.865
    19    1    0.0000    0.2120    0.0000   0.02650  1.6272E-03 -2.7929E-03  3.2324E-03  -59.774
    20    1    0.0000    0.2385    0.0000   0.02650  1.1042E-03 -1.9613E-03  2.2508E-03  -60.621
    21    1    0.0000    0.2650    0.0000   0.02650  5.0439E-04 -9.2542E-04  1.0540E-03  -61.408


                               ---------- POWER BUDGET ---------
                               INPUT POWER   =  1.9216E-03 Watts
                               RADIATED POWER=  1.9216E-03 Watts
                               STRUCTURE LOSS=  0.0000E+00 Watts
                               NETWORK LOSS  =  0.0000E+00 Watts
                               EFFICIENCY    =  100.00 Percent


                               --------- FREQUENCY --------
                               FREQUENCY=  3.9000E+02 MHZ
                               WAVELENGTH= 7.6872E-01 METERS


                        APPROXIMATE INTEGRATION EMPLOYED FOR SEGMENTS
                        THAT ARE MORE THAN 1.000 WAVELENGTHS APART



                          ------ STRUCTURE IMPEDANCE LOADING ------
                                 THIS STRUCTURE IS NOT LOADED



                            -------- ANTENNA ENVIRONMENT --------

                            FREE SPACE


                             ---------- MATRIX TIMING ----------
                               FILL= 0 msec  FACTOR: 0 msec


                        --------- ANTENNA INPUT PARAMETERS ---------
  TAG   SEG       VOLTAGE (VOLTS)         CURRENT (AMPS)         IMPEDANCE (OHMS)        ADMITTANCE (MHOS)     POWER
  NO.   NO.     REAL      IMAGINARY     REAL      IMAGINARY     REAL      IMAGINARY    REAL       IMAGINARY   (WATTS)
    1    10  1.0000E+00  0.0000E+00  3.1303E-03 -2.7720E-03  1.7905E+02  1.5856E+02  3.1303E-03 -2.7720E-03  1.5652E-03


                           -------- CURRENTS AND LOCATION --------
                                  DISTANCES IN WAVELENGTHS

   SEG  TAG    COORDINATES OF SEGM CENTER     SEGM    ------------- CURRENT (AMPS) -------------
   No:  No:       X         Y         Z      LENGTH     REAL      IMAGINARY    MAGN        PHASE
     1    1    0.0000   -0.2756    0.0000   0.02756  4.0755E-04 -7.2100E-04  8.2821E-04  -60.523
     2    1    0.0000   -0.2480    0.0000   0.02756  8.9489E-04 -1.5240E-03  1.7673E-03  -59.579
     3    1    0.0000   -0.2205    0.0000   0.02756  1.3220E-03 -2.1611E-03  2.5334E-03  -58.544
     4    1    0.0000   -0.1929    0.0000   0.02756  1.7174E-03 -2.6863E-03  3.1884E-03  -57.409
     5    1    0.0000   -0.1654    0.0000   0.02756  2.0768E-03 -3.0933E-03  3.7258E-03  -56.123
     6    1    0.0000   -0.1378    0.0000   0.02756  2.3944E-03 -3.3723E-03  4.1359E-03  -54.625
     7    1    0.0000   -0.1102    0.0000   0.02756  2.6638E-03 -3.5106E-03  4.4069E-03  -52.809
     8    1    0.0000   -0.0827    0.0000   0.02756  2.8793E-03 -3.4913E-03  4.5254E-03  -50.487
     9    1    0.0000   -0.0551    0.0000   0.02756  3.0360E-03 -3.2477E-03  4.4458E-03  -46.929
    10    1    0.0000   -0.0276    0.0000   0.02756  3.1303E-03 -2.7720E-03  4.1812E-03  -41.526
    11    1    0.0000    0.0000    0.0000   0.02756  3.1601E-03 -3.5383E-03  4.7440E-03  -48.232
    12    1    0.0000    0.0276    0.0000   0.02756  3.1247E-03 -4.0647E-03  5.1269E-03  -52.449
    13    1    0.0000    0.0551    0.0000   0.02756  3.0250E-03 -4.3513E-03  5.2995E-03  -55.193
    14    1    0.0000    0.0827    0.0000   0.02756  2.8637E-03 -4.4578E-03  5.2984E-03  -57.284
    15    1    0.0000    0.1102    0.0000   0.02756  2.6444E-03 -4.3952E-03  5.1294E-03  -58.967
    16    1    0.0000    0.1378    0.0000   0.02756  2.3724E-03 -4.1720E-03  4.7994E-03  -60.376
    17    1    0.0000    0.1654    0.0000   0.02756  2.0537E-03 -3.7968E-03  4.3166E-03  -61.591
    18    1    0.0000    0.1929    0.0000   0.02756  1.6948E-03 -3.2788E-03  3.6910E-03  -62.665
    19    1    0.0000    0.2205    0.0000   0.02756  1.3019E-03 -2.6268E-03  2.9317E-03  -63.636
    20    1    0.0000    0.2480    0.0000   0.02756  8.7929E-04 -1.8465E-03  2.0451E-03  -64.536
    21    1    0.0000    0.2756    0.0000   0.02756  3.9949E-04 -8.7133E-04  9.5854E-04  -65.369


                               ---------- POWER BUDGET ---------
                               INPUT POWER   =  1.5652E-03 Watts
                               RADIATED POWER=  1.5652E-03 Watts
                               STRUCTURE LOSS=  0.0000E+00 Watts
                               NETWORK LOSS  =  0.0000E+00 Watts
                               EFFICIENCY    =  100.00 Percent
*****  DATA CARD N0.   4 EN   0     0     0     0  0.00000E+00  0.00000E+00  0.00000E+00  0.00000E+00  0.00000E+00  0.00000E+00

  TOTAL RUN TIME: 180 msec